13
generated by pescan.py
S 2.9425000432 0.4707113691 -0.0303089821
S -4.157119951 1.6395741719 0.3670538849
C 0.1997586674 0.0960828177 0.1577521197
C 1.509076657 -0.7001821489 -0.0438714543
C -0.9942868143 -0.7992654484 0.146717763
H 0.2639420021 0.637692378 1.1090751594
H 0.1247492322 0.8466062449 -0.6386526945
H 1.6322208775 -1.4315511804 0.758683289
H 1.48474614 -1.2285103313 -1.0002243741
H -1.3021728608 -1.320646741 1.0480554447
H -1.4162444848 -1.1423354571 -0.7933488566
H 3.9028590164 -0.4532268107 -0.2299045384
H -3.0818275248 0.8086581363 0.3278672394
