13
generated by pescan.py
S 2.7922063628 0.4748401182 -0.0066438557
S -2.9474697122 0.5460235204 -0.0119941817
C 0.038695259 0.2443875046 0.009518289
C 1.3053966519 -0.6239604761 -0.0086866701
C -1.2037702838 -0.623892085 0.016458235
H 0.053106288 0.8873104049 0.8963509905
H 0.0260212656 0.9012271573 -0.8655877412
H 1.3403687434 -1.2720619001 0.8717512712
H 1.3263895086 -1.2516328732 -0.9041001149
H -1.3151932833 -1.2489750929 0.9021315483
H -1.3316386284 -1.2206524714 -0.8871363748
H 3.7133773794 -0.5091091544 -0.0134211521
H -2.689290551 1.1200933479 1.1802587566
