13
generated by pescan.py
S 2.7723897284 0.4401581815 -0.0090860244
S -2.6804831558 0.3106550003 -0.0250563411
C 0.010989848 0.2999845705 0.0133473532
C 1.2453308609 -0.6019439544 -0.0037282636
C -1.3089751557 -0.5108679035 0.0387084616
H 0.043662353 0.9501191787 0.897053957
H 0.0084332004 0.9572992516 -0.8633103283
H 1.2615542461 -1.248087811 0.8789398882
H 1.2448552894 -1.2344093831 -0.8965039071
H -1.248849654 -1.217894038 0.8821093386
H -1.3059465518 -1.1646667399 -0.8460592698
H 3.6581501803 -0.5758353416 -0.0101158207
H -2.5929111892 1.0190889889 1.1226009564
