13
generated by pescan.py
S 2.9591294703 0.463879824 -0.031536338
S -4.2453305589 1.6625358054 0.3707765282
C 0.2162116022 0.0897055744 0.1576846807
C 1.5252877402 -0.7066090097 -0.0450998992
C -0.9784241069 -0.804651333 0.1464776049
H 0.2811818478 0.6305347899 1.1094470485
H 0.1412996623 0.8410465368 -0.6380210708
H 1.6486293464 -1.4384947394 0.7569441737
H 1.5003789943 -1.2343693181 -1.0017440763
H -1.2912368341 -1.3213884737 1.0486504959
H -1.4055165724 -1.1420196209 -0.7932104639
H 3.9191683857 -0.4599684087 -0.2330727687
H -3.1625769768 0.843403373 0.331597085
