13
generated by pescan.py
S 2.9758101101 0.4572374466 -0.0323527324
S -4.3331765862 1.6854519627 0.374673904
C 0.2329095567 0.082968511 0.1576559211
C 1.541865789 -0.7131863079 -0.0461242319
C -0.962630293 -0.8099533216 0.1458257997
H 0.2983840732 0.6231118665 1.1098346271
H 0.1581689682 0.8351899423 -0.637261544
H 1.6656229579 -1.4456478236 0.7553394689
H 1.5166300706 -1.2404103884 -1.0030652669
H -1.2810323698 -1.3208485207 1.0487963573
H -1.3964581056 -1.1414902891 -0.7927572634
H 3.9355939457 -0.4662520723 -0.2368167868
H -3.243487117 0.8774329946 0.3351447474
