13
generated by pescan.py
S 3.1025398113 0.4551595868 -0.0568283832
S -4.8104960559 1.617731629 -0.0531005583
C 0.3734729907 -0.0406295609 0.1036467154
C 1.7196119121 -0.776301071 -0.0821187844
C -0.7807084382 -0.9860827412 0.091689187
H 0.4068361198 0.5113706925 1.05101268
H 0.2709267372 0.6999745651 -0.6993452977
H 1.8670887873 -1.5003040654 0.7229954015
H 1.7285780872 -1.3070931337 -1.0373276519
H -1.1132382505 -1.4724446879 1.0028329981
H -1.2143817649 -1.3210260132 -0.8449449875
H 4.1045993217 -0.426042461 -0.2447485952
H -4.5466332579 1.9692882609 1.225133276
