13
generated by pescan.py
S 2.8430553578 0.5029943999 -0.0103876282
S -3.3436016477 0.8549081445 -0.0288853156
C 0.1014244075 0.1629648485 0.0293109686
C 1.4097975916 -0.6650720502 -0.0271514006
C -1.060747127 -0.7653556675 0.0287207757
H 0.1060597177 0.7787901359 0.933110885
H 0.0581502561 0.8283684939 -0.8370522405
H 1.4788511555 -1.3335894307 0.8349828498
H 1.4416329207 -1.2638718344 -0.9409345101
H -1.3493128335 -1.2712462536 0.9441034078
H -1.3380371915 -1.2687022528 -0.891290679
H 3.8045794819 -0.440013375 -0.0642234734
H -3.0436590891 1.3034238417 1.2085943605
