13
generated by pescan.py
S 2.9759614509 0.0036613164 0.0508521667
S -4.1545498359 -0.537701108 0.1415173963
C 0.2572630097 0.4706514294 0.266630931
C 1.2480518298 -0.6444508027 -0.0698311467
C -1.201664075 -0.0098684947 0.1846394417
H 0.4620890769 0.8493696092 1.2748601128
H 0.4064579755 1.3109514875 -0.421662391
H 1.1323508981 -1.4807634445 0.6258856816
H 1.0766065746 -1.0124674611 -1.0855920932
H -1.3855877895 -0.8210541526 0.8966876945
H -1.4343547143 -0.3818709264 -0.8189931198
H 3.6029697807 -1.1419615016 -0.2815860877
H -1.8773941814 0.8191090491 0.4154884137
