13
generated by pescan.py
S 2.8413349151 0.4801725959 -0.0172768069
S -3.55281788 1.3781986122 0.4408784778
C 0.0911000867 0.1858773044 0.1315135895
C 1.3780368432 -0.6524908873 -0.0236398514
C -1.1271791116 -0.68453443 0.1224300069
H 0.1484856957 0.751615161 1.0685016189
H 0.0449150304 0.9153241917 -0.6854851851
H 1.4685715444 -1.3634865048 0.8015577191
H 1.3567588818 -1.2075367689 -0.9649389033
H -1.3706128477 -1.264319992 1.0104675854
H -1.4692343467 -1.1063770071 -0.8204427084
H 3.7782128701 -0.4748086129 -0.1785408522
H -2.4793716815 0.4659713378 0.2938723098
