13
generated by pescan.py
S 2.9588465658 -0.0030349319 0.0397878146
S -3.9650932021 -0.5515240577 0.1001692381
C 0.2436330147 0.4729503924 0.2688202115
C 1.2285065267 -0.6471555099 -0.0670296407
C -1.2208180071 -0.003936562 0.195575934
H 0.4529124756 0.8557039197 1.2745503466
H 0.3907155426 1.3095969582 -0.4242285224
H 1.1142873579 -1.4790287072 0.6342248366
H 1.0500814161 -1.0205036723 -1.0796417412
H -1.3933284405 -0.8180688465 0.9062152401
H -1.4493790448 -0.3724279481 -0.8101721947
H 3.5801754343 -1.1515858356 -0.293155788
H -1.8823396392 0.832619801 0.4337802655
