13
generated by pescan.py
S 3.054250974 0.4673917476 -0.0821622528
S -4.5583949185 1.4802181202 -0.0706168916
C 0.3353845956 -0.0068893234 0.1296985743
C 1.6786020699 -0.7687786404 -0.1053093128
C -0.7813183936 -0.9591287127 0.1118021836
H 0.392942181 0.5218740131 1.0854757258
H 0.2268223643 0.7295175766 -0.6769196852
H 1.8338238466 -1.5064976864 0.6847838437
H 1.654760074 -1.2775980206 -1.0713072393
H -1.2005602406 -1.364605022 1.0263216477
H -1.1564979779 -1.3600336848 -0.8242371573
H 4.0509981618 -0.4260953287 -0.2365392379
H -4.4226157366 1.8942219616 1.2079058018
