13
generated by pescan.py
S 3.0606731543 0.487173172 -0.0516862317
S -4.6134597066 1.5665339977 -0.0631341829
C 0.3381455895 -0.0450049952 0.1087623377
C 1.6935755579 -0.7617458022 -0.0825228036
C -0.8032197772 -1.0059034017 0.093833611
H 0.3656807155 0.5030599752 1.0586228097
H 0.2237708043 0.698046501 -0.6903306041
H 1.8513343255 -1.4881892474 0.7184782318
H 1.7084955439 -1.2873338803 -1.0405347655
H -1.1247704555 -1.503880954 1.0027064233
H -1.2333039906 -1.3429428692 -0.8436890726
H 4.0739966514 -0.3806902958 -0.2412861113
H -4.4327214123 1.9844787997 1.2096743581
