13
generated by pescan.py
S 2.9260685072 0.4773519507 -0.0289864492
S -4.0688425057 1.6161984762 0.3634008984
C 0.1835029753 0.1025501054 0.1578512731
C 1.4929606282 -0.693813983 -0.0425422887
C -1.0100956309 -0.7936149872 0.1469135255
H 0.2468649386 0.6449318681 1.1087400041
H 0.108435633 0.8522937961 -0.6392210153
H 1.615799165 -1.4246402501 0.7605625482
H 1.4691916697 -1.2227514327 -0.9985790267
H -1.3136938313 -1.3190991204 1.0474564185
H -1.4272028197 -1.1419157493 -0.7935118887
H 3.8865990212 -0.4467116902 -0.2271717856
H -3.0013867507 0.7728280164 0.3239807865
