13
generated by pescan.py
S 2.8034600113 0.486550444 -0.0064594879
S -3.0565193646 0.635222292 -0.0081418711
C 0.0534992372 0.2208151112 0.0106273649
C 1.3335082549 -0.6347362978 -0.0129086902
C -1.1619642856 -0.6686778742 0.0143315723
H 0.061560419 0.8578805918 0.9008196234
H 0.0329256812 0.8777628059 -0.8635849381
H 1.3770573856 -1.2862223382 0.864426408
H 1.3612533516 -1.2568860591 -0.9117597349
H -1.3315931688 -1.2587039698 0.911946321
H -1.3409290613 -1.2358566238 -0.8964905299
H 3.7385023661 -0.4842583853 -0.0182456502
H -2.7625628266 1.1707103031 1.1943386128
