13
generated by pescan.py
S 2.8353255601 0.4999788361 -0.0093003207
S -3.2812351716 0.8149164022 -0.031116146
C 0.0918938682 0.1749370962 0.0269065262
C 1.3946542269 -0.6588905978 -0.0248203676
C -1.0794285265 -0.7466893758 0.027467555
H 0.0974781621 0.7942586343 0.9284455302
H 0.0520909286 0.839168247 -0.8404992336
H 1.4591828973 -1.3254265537 0.8393282952
H 1.4252319236 -1.2609360105 -0.9366305726
H -1.3509611449 -1.2644419341 0.9417333397
H -1.3389095075 -1.2647666759 -0.8899387527
H 3.7915349151 -0.4487203882 -0.0581490485
H -2.9886651314 1.2702123203 1.2054701954
