13
generated by pescan.py
S 3.135205731 0.4501329709 -0.0585148844
S -5.1110682347 1.7944577999 -0.0197922455
C 0.4085750226 -0.0634118248 0.0932821284
C 1.7607162845 -0.7908637699 -0.0816396815
C -0.7382272491 -1.0176471945 0.0818417756
H 0.4339249038 0.4948586015 1.0370949852
H 0.3047660988 0.6711217088 -0.7152566045
H 1.9094329297 -1.508334212 0.7290937756
H 1.7777926729 -1.3282529112 -1.0330404737
H -1.0797475808 -1.491392133 0.9962374759
H -1.1559513728 -1.3731190013 -0.8545352425
H 4.1437195911 -0.4251674854 -0.2392935512
H -4.6809437971 2.0112174511 1.2434185428
