13
generated by pescan.py
S 3.0402451775 0.4740371454 -0.0777795575
S -4.4749761821 1.4461168698 -0.0620746574
C 0.3204407679 -0.0007428607 0.121952405
C 1.6656296731 -0.7634192664 -0.1001088684
C -0.7930949333 -0.957181706 0.1049680551
H 0.3723790009 0.5335581167 1.0749176496
H 0.214575988 0.7289099227 -0.6905783196
H 1.8173497317 -1.4958761124 0.6955665099
H 1.6478289306 -1.2785935677 -1.0628731835
H -1.2064132153 -1.3678207014 1.0198274116
H -1.1697664607 -1.356292546 -0.8311852864
H 4.0382015008 -0.4191688349 -0.2259507303
H -4.3642049791 1.8800715409 1.2122145719
