13
generated by pescan.py
S 2.8956300422 0.4884320534 -0.0248863446
S -3.896704892 1.5627806742 0.3730494974
C 0.1526374984 0.1170606439 0.1524839417
C 1.4619039005 -0.6817406899 -0.0387535881
C -1.0414862846 -0.778969548 0.1408154207
H 0.2119030436 0.6642515962 1.1007166092
H 0.0808492966 0.8626153579 -0.6487672028
H 1.5808960185 -1.4089081704 0.768263551
H 1.4415304535 -1.2151273268 -0.9924057391
H -1.3461947364 -1.3024137947 1.0423808159
H -1.4449811941 -1.1422213311 -0.8000956699
H 3.855941123 -0.4374450693 -0.2154844879
H -2.8437232692 0.6952926044 0.3215791965
