13
generated by pescan.py
S 3.0907574285 0.4597844743 -0.0560207899
S -4.729446494 1.5834639887 -0.0593207411
C 0.3622684076 -0.0359936349 0.1077202522
C 1.7075292858 -0.7712379821 -0.0830063942
C -0.7931537397 -0.9800951309 0.0948400412
H 0.3962704871 0.5129182852 1.0568564841
H 0.257978942 0.7080132833 -0.6919572704
H 1.8565390015 -1.4981939609 0.7191732986
H 1.7146216549 -1.2985782722 -1.0401780997
H -1.1146764208 -1.4792036603 1.0034268653
H -1.2150880906 -1.3269844876 -0.8430371974
H 4.0921515049 -0.4213346837 -0.2478755741
H -4.5175549671 1.971043781 1.2182741254
