13
generated by pescan.py
S 2.7774328199 0.4001201287 0.0248134535
S -2.4816584363 0.1367212064 0.0155448819
C 0.0129255328 0.3559488048 -0.0258098409
C 1.2111560927 -0.5809303544 -0.0292802021
C -1.4236501261 -0.4270805494 0.067947294
H 0.0457426079 1.0245672523 0.8443539375
H -0.0146938413 0.9840953503 -0.9240521258
H 1.179585496 -1.2414601832 0.8427990069
H 1.2138054997 -1.2007646563 -0.9316924467
H -1.1530282802 -1.1948801879 0.8703885589
H -1.301323261 -1.1122939003 -0.7939697751
H 3.6276015554 -0.6456355734 0.0797013326
H -2.5856956595 0.9251926623 1.1381559253
