13
generated by pescan.py
S 2.9524442114 0.4898633588 -0.0379219375
S -3.9717140414 1.1857435913 -0.0448474057
C 0.2211861893 0.0710221971 0.0736317119
C 1.5564385786 -0.7231259603 -0.0611274317
C -0.9033816601 -0.8789636471 0.0661482586
H 0.2456696526 0.6462307227 1.003625604
H 0.1477285017 0.7648054234 -0.7702854555
H 1.6664623818 -1.4238607571 0.7696397976
H 1.5692407491 -1.2793262559 -1.0011034847
H -1.2843683503 -1.3125969577 0.98415402
H -1.2692162988 -1.3013998 -0.8634852897
H 3.9371226213 -0.4219142977 -0.1602762356
H -3.7594175351 1.6071203824 1.2207408483
