13
generated by pescan.py
S 2.8618593997 0.5062033739 -0.0132976836
S -3.4744656568 0.9318291813 -0.0252587633
C 0.1235161727 0.1397170699 0.0348897722
C 1.4414315569 -0.677488773 -0.0329630872
C -1.0245034431 -0.7986031084 0.0320702964
H 0.1272916464 0.7482769336 0.9434448575
H 0.073411528 0.8086981114 -0.8286299784
H 1.5192857215 -1.3511482013 0.8241801796
H 1.4742113012 -1.2689400567 -0.951294564
H -1.3468218225 -1.2777755116 0.9496483079
H -1.3288880295 -1.2790755546 -0.8909578155
H 3.8324827568 -0.4265905673 -0.0788163164
H -3.1706191314 1.3684951027 1.2158827949
