13
generated by pescan.py
S 3.0211751613 0.5078200502 -0.044699635
S -4.361687217 1.4581710658 -0.0638855574
C 0.3000797018 -0.0350412949 0.1062771364
C 1.6593878229 -0.7468416515 -0.0773027312
C -0.8373689842 -1.0005084022 0.0912926337
H 0.3231501677 0.5156042347 1.0550054365
H 0.1848275086 0.7052635707 -0.6949540184
H 1.8166588174 -1.4698780642 0.7269008984
H 1.6805469709 -1.275491776 -1.0334591967
H -1.1454635237 -1.5111380706 0.99794173
H -1.2839918788 -1.3205921374 -0.8442770382
H 4.0384535792 -0.3558510663 -0.232230268
H -4.287568126 1.9520865418 1.1922836098
