13
generated by pescan.py
S 2.8825552854 0.4913332359 -0.0224121491
S -3.8168783036 1.5310450072 0.3832170231
C 0.1387555602 0.1264326716 0.1484377099
C 1.4465998553 -0.675993986 -0.0365001272
C -1.0572587833 -0.7675286573 0.1361152452
H 0.1960527774 0.6767897693 1.0948490473
H 0.0705487563 0.8692990764 -0.6556126363
H 1.5618924766 -1.4008344051 0.773157847
H 1.4277831489 -1.2123825084 -0.9885094982
H -1.3636647815 -1.2886695624 1.0386033215
H -1.4505307396 -1.1419538037 -0.8049014544
H 3.8412902884 -0.4371035068 -0.2084056409
H -2.7689455405 0.6531746693 0.3208573121
