13
generated by pescan.py
S 2.9492090388 -0.0174795145 0.0333774096
S -3.8530701555 -0.6216060823 0.0701121548
C 0.2396062912 0.4792569528 0.2710151934
C 1.2138986456 -0.6490221016 -0.066821271
C -1.2326659998 0.0152449875 0.2039159399
H 0.4541075048 0.8611625084 1.2759463701
H 0.3900203748 1.314219238 -0.4232810525
H 1.0955918066 -1.4790603396 0.635935623
H 1.0290871882 -1.0222856329 -1.0783257586
H -1.4002630245 -0.7981347294 0.9158479017
H -1.4598063881 -0.3492073108 -0.8036248137
H 3.5610875118 -1.1711423824 -0.2992824129
H -1.878602794 0.8616574068 0.4440787163
