13
generated by pescan.py
S 2.9831636679 0.0130130468 0.0496761827
S -4.2524545047 -0.5149932905 0.164574543
C 0.2629117507 0.4671655369 0.2649596626
C 1.2586774507 -0.6433620026 -0.0714349781
C -1.1928371533 -0.0164478407 0.1785167037
H 0.4654828456 0.8445939453 1.2739495668
H 0.4137055713 1.3086973028 -0.421190894
H 1.1463034174 -1.4805309412 0.6237643855
H 1.0894911454 -1.0108170361 -1.0876649077
H -1.379246016 -0.830966657 0.8867485565
H -1.4271636926 -0.3860253034 -0.8256785648
H 3.6158733951 -1.1334513566 -0.2679745024
H -1.8757068774 0.8067285962 0.4106512461
