13
generated by pescan.py
S 3.0259743601 0.4784788465 -0.0713689575
S -4.3998534467 1.411989687 -0.0580467923
C 0.3043648886 0.0092754068 0.1121864141
C 1.6497847499 -0.7572651208 -0.0935968242
C -0.8089061118 -0.9482434564 0.0981378217
H 0.3507342216 0.551554906 1.0609856401
H 0.2033357679 0.73115474 -0.707277264
H 1.7950821499 -1.4837682726 0.7087479281
H 1.6384594158 -1.2800414651 -1.0523718983
H -1.214652454 -1.3644904651 1.013913983
H -1.1884225928 -1.3478026314 -0.8366384258
H 4.0233517843 -0.4165118053 -0.2125959269
H -4.2710577328 1.8392656303 1.2168203019
