11
136396
 I    0.731900    1.906200    0.132300
 I   -2.511900    0.052900   -0.141900
 C    0.546300   -0.210900   -0.372500
 C   -0.627200   -0.846500    0.386100
 C    1.860900   -0.901700   -0.004000
 H    0.388500   -0.290300   -1.454700
 H   -0.679500   -1.917000    0.155900
 H   -0.486000   -0.756800    1.469900
 H    1.820000   -1.965200   -0.263400
 H    2.705300   -0.461800   -0.545900
 H    2.073500   -0.826600    1.068400
