13
generated by pescan.py
C -0.3973186112 0.9749532296 0.0782178832
H 0.6012259682 0.6206679761 -0.3435192022
C 0.0360312776 2.5339685822 0.2996407097
H -0.6433046852 3.1315619446 -0.3220768381
H -0.2002843582 2.7768555125 1.3438620852
C 1.4931415689 2.8380801563 -0.0282506763
H 1.7255969888 3.8953728796 0.1323261985
H 2.1741168299 2.2494980607 0.5966892059
H 1.7236273261 2.6022393298 -1.0730878773
Se -1.3378903692 0.4362895406 0.2657441149
H -0.3720910699 -1.9373282164 -0.5397044576
Se 0.8300071103 -2.7083912545 -0.9698352076
H 1.1993420239 -2.9648677412 0.4334940615
