13
generated by pescan.py
C -0.0864431579 0.501810039 -0.3070212965
H 0.1835507557 0.6061147179 -1.3605665772
C 0.3064547992 1.8594147964 0.3685121435
H -0.5239327904 2.5608466072 0.2076593748
H 0.3872603181 1.7087344103 1.4504869158
C 1.5888205921 2.4862645874 -0.1771321742
H 1.7547301792 3.4610714257 0.2913644057
H 2.4583634411 1.8572296372 0.0268594858
H 1.5209971953 2.6453441676 -1.259181862
Se -1.4737206714 0.0499011233 0.041173952
H -1.6997258834 -1.0551920217 -0.9216586347
Se 1.5547494364 -0.8791613927 0.1493937756
H 0.861095786 -1.3534780975 1.3636104914
