13
generated by pescan.py
C -0.2298137242 0.5740492203 -0.3681027621
H 0.3295298809 0.5087213324 -1.2887192497
C 0.2940698948 1.8395978695 0.4070514938
H -0.5270069219 2.5698077955 0.4555213921
H 0.5265303934 1.5442215455 1.4318342047
C 1.5103479482 2.4849606018 -0.253456619
H 1.8212964928 3.3589189257 0.3261940083
H 2.3431850646 1.7794600489 -0.2885860566
H 1.2804998486 2.8225900756 -1.2696527969
Se -1.4259173649 0.1283661978 -0.1217259345
H -1.7203630076 -0.9119980588 -1.1605066542
Se 1.6972981791 -1.1087931382 0.367788613
H 0.9325433162 -1.1410024162 1.6358603612
