13
generated by pescan.py
C -0.3262286961 1.0433941902 0.0178324033
H 0.5726109362 0.5330112446 0.4795312582
C 0.0291842981 2.5370784187 0.3741634099
H -0.7266494689 3.193760924 -0.0765214089
H -0.0582314482 2.6343447845 1.4649416804
C 1.4421694757 2.9268787614 -0.0657003349
H 1.6825894469 3.9486284334 0.2427158912
H 2.1903548519 2.2608076957 0.3780681375
H 1.5517048213 2.8719772997 -1.154365404
Se -1.2549722983 0.5466327309 -0.5572019755
H -0.2529472412 -2.0201505948 -0.7593933892
Se 0.7834653851 -3.0710584289 -0.9397413415
H 1.1991499376 -2.9564054593 0.4691710735
