10
generated by pescan.py
S -1.0606824913 -0.000149495 -0.0013952621
C 0.0393173248 -3.39099e-05 -0.0007586072
C 1.0493301705 1.2507370693 0.0002205688
C 1.0496000119 -1.2505884661 0.0002237808
H 1.6910346962 1.2267484303 0.886661002
H 1.6970055357 1.2244083586 -0.8817606069
H 0.4725429849 2.1814192864 -0.0028057734
H 0.473010091 -2.1813965964 -0.0014361828
H 1.692396797 -1.225782446 0.8858454074
H 1.6961748794 -1.2247922312 -0.8825843266
