10
generated by pescan.py
S -2.814266593 -0.0002704382 -0.0020255659
C 0.4857325418 3.2163e-06 5.11585e-05
C 1.2166482706 1.2686749906 -0.0003114109
C 1.2169342493 -1.2685062734 -0.0001335297
H 1.8830842322 1.3071025312 0.8791925093
H 1.8938369339 1.3052081834 -0.871558884
H 0.5698746394 2.1469593313 -0.0043629188
H 0.5703534942 -2.1469426159 -0.0011578283
H 1.8869695698 -1.305917667 0.8766475633
H 1.8905676619 -1.3057462584 -0.8741310934
