10
generated by pescan.py
S -1.8586749749 -0.0002267775 -0.0031122865
C 0.4413235527 9.5299e-06 -0.0005209555
C 1.1215666402 1.300529553 0.0003729826
C 1.1218441081 -1.3003658574 0.000455224
H 1.7805877803 1.3739747533 0.8809253914
H 1.7855886069 1.3729926122 -0.8764695486
H 0.4201349512 2.1330958367 -0.0019170823
H 0.4205927948 -2.1330875339 -0.0008137612
H 1.7818049531 -1.373259335 0.8803437931
H 1.7849625877 -1.3730947813 -0.8770547571
