10
generated by pescan.py
S -2.4110292358 -0.0002385007 -0.0036615379
C 0.4889686386 4.5473e-06 -0.0005778009
C 1.176471543 1.2878814888 0.0003247209
C 1.1767619816 -1.2877182194 0.0004575079
H 1.8414595152 1.3488935105 0.8797342356
H 1.8471558769 1.3481887078 -0.8747632505
H 0.4951130132 2.1385790604 -0.0019778534
H 0.4955983128 -2.1385760128 -0.0005333688
H 1.8431282523 -1.3481315566 0.878855013
H 1.8461051023 -1.3483160253 -0.8756476659
