10
generated by pescan.py
S -2.1173823736 -0.0002431461 -0.0036534383
C 0.4826156491 1.09987e-05 -0.0004569148
C 1.1486144149 1.3003748931 0.0004175574
C 1.1488959332 -1.3002087591 0.0005202662
H 1.8093195993 1.3768170637 0.8810377429
H 1.8142020769 1.3760232219 -0.876564427
H 0.4444395258 2.1314205653 -0.0017423763
H 0.4449034663 -2.1314121129 -0.0006006695
H 1.8106044745 -1.3761136845 0.8804273582
H 1.8135192336 -1.3761020401 -0.8771780988
