10
generated by pescan.py
S -2.9118886086 -0.0002780682 -0.0003430446
C 0.4881110201 4.022e-06 0.0009028154
C 1.2269975325 1.2654843857 -0.0009156612
C 1.2272768164 -1.2653168728 -0.0007420159
H 1.8913971813 1.3011153142 0.8802205005
H 1.9065829446 1.29801485 -0.8703773372
H 0.5860885051 2.1482474916 -0.006566315
H 0.5865573314 -2.1482343481 -0.0019777699
H 1.89705023 -1.2995731226 0.8763295314
H 1.9015620471 -1.2988986518 -0.8743207035
