10
generated by pescan.py
S -1.1690223108 -0.0001623467 -0.0012322044
C 0.1309775625 -2.39193e-05 -0.0006433252
C 1.0515913611 1.2526739614 0.0001850177
C 1.0518615743 -1.25252387 0.0001893393
H 1.7007839477 1.2487056082 0.8831965744
H 1.7069275645 1.246266864 -0.878220294
H 0.4589468006 2.170390002 -0.0029760996
H 0.4594108819 -2.1703691752 -0.0016046672
H 1.702170431 -1.2477601282 0.882370518
H 1.7060821872 -1.2466269963 -0.8790548589
