10
generated by pescan.py
S -1.9415969051 -0.0002345489 -0.0033245168
C 0.4584014042 1.11414e-05 -0.000486475
C 1.1304589153 1.3015017837 0.0003951364
C 1.1307370745 -1.3013362924 0.0004843225
H 1.7897261028 1.3773702951 0.881176264
H 1.7946363996 1.3764619426 -0.8767431036
H 0.4259779523 2.1317482788 -0.0018345165
H 0.4264358899 -2.1317386612 -0.0007335602
H 1.7909486896 -1.3766641023 0.880598645
H 1.7940074769 -1.3765508368 -0.877324196
