10
generated by pescan.py
S -2.3096933505 -0.0002507239 -0.0037942465
C 0.4903046786 8.9818e-06 -0.0004823848
C 1.1669576024 1.2932256095 0.0003890317
C 1.1672414642 -1.2930588658 0.0005106344
H 1.8305237386 1.3612037474 0.88022021
H 1.8357281014 1.3604693308 -0.8755222666
H 0.4756715331 2.1355885332 -0.0018061681
H 0.4761423116 -2.1355784601 -0.0005129571
H 1.8319992762 -1.3604749836 0.8794769243
H 1.8348566442 -1.3605671693 -0.8762697774
