12
1031
 O    1.838100   -0.160300   -0.003800
 C   -0.530000   -0.508100    0.003800
 C    0.590800    0.520000    0.003600
 C   -1.898900    0.148400   -0.003600
 H   -0.427600   -1.164800   -0.868500
 H   -0.436500   -1.157900    0.882200
 H    0.543300    1.153000   -0.887800
 H    0.547700    1.163200    0.888200
 H   -2.030000    0.771700   -0.893900
 H   -2.685100   -0.613000   -0.003200
 H   -2.036000    0.778900    0.880800
 H    1.884800   -0.697100    0.805700
