13
generated by pescan.py
S 0.6214508815 -1.6971463682 0.2140570491
S -2.3534519017 0.1704809878 -0.1459826408
C 0.4979651784 0.0868613655 -0.280109694
C -0.7056716915 0.7952279484 0.3613425229
C 1.8024541968 0.8380590177 0.0037863942
H 0.3336498274 0.0264690239 -1.3607742267
H -0.6184017047 0.7783538335 1.4527068297
H -0.6998691353 1.8461067638 0.0497462989
H 1.7401180491 1.8619977803 -0.3820990272
H 1.9978634928 0.8978191294 1.0801047311
H 2.6530434003 0.3414553876 -0.4685581575
H 0.9368081117 -1.468865344 1.5063164311
H -1.9662587049 -1.3518175258 0.158465489
