13
generated by pescan.py
S 0.5486599383 -1.5198841504 1.0861320769
S -2.1514192726 -0.0780715053 0.8492425221
C 0.461317537 -0.0339984493 -0.0311617669
C -0.6482101459 0.8934759043 0.468955009
C 1.8097620055 0.663409199 -0.1964145934
H 0.1373686731 -0.4768276162 -0.9786896814
H -0.3193816193 1.4359653807 1.3623570077
H -0.9059061401 1.6329544038 -0.2993642543
H 1.7196103663 1.4952003136 -0.9048218251
H 2.1664840857 1.0712221163 0.7553777249
H 2.5657473507 -0.0285672206 -0.5759743346
H 0.9094780146 -0.8480311799 2.2005536001
H -2.0538127932 -1.0818461961 -1.5471944851
