13
generated by pescan.py
S 0.5249880788 -1.507182096 1.0835576537
S -2.1982090202 0.0849590103 0.8638996604
C 0.4356948189 -0.0033590473 -0.0062772767
C -0.6245843296 0.9547111163 0.5413112597
C 1.79657775 0.6611363301 -0.2083655469
H 0.0728014775 -0.4216217798 -0.9509405281
H -0.2646867086 1.4329704783 1.4591286721
H -0.8334504151 1.7508073218 -0.1858243147
H 1.7071199605 1.5021185751 -0.9060199247
H 2.1933467414 1.049963503 0.7356078582
H 2.5221187863 -0.047050692 -0.6161328428
H 0.9472973511 -0.8614164053 2.1916521024
H -2.0393164911 -1.4710343145 -1.8125977725
