13
generated by pescan.py
S 0.5167560063 -1.5548264367 0.9748305275
S -2.0778502288 -0.3046210853 0.787957551
C 0.5041973951 -0.0236192422 -0.1228631972
C -0.6617456692 0.8443408015 0.3217639379
C 1.8537344207 0.6803708491 -0.1828908976
H 0.2434105524 -0.4668127455 -1.0893861542
H -0.4229668987 1.4350730838 1.2105555153
H -0.9978893491 1.5037163089 -0.4858945071
H 1.8012788536 1.5227127151 -0.8820949009
H 2.1449552437 1.0760468574 0.795377232
H 2.6391245456 0.0004373877 -0.5261316252
H 0.6406610522 -0.8907883671 2.1451652747
H -1.9439659238 -0.6970251268 -0.7573887563
