13
generated by pescan.py
S 0.6956660015 -1.7229297099 0.2109460866
S -2.3275835744 0.0430866173 -0.1788650731
C 0.5243052206 0.0568101934 -0.2819892104
C -0.7057196161 0.7228844859 0.3505048992
C 1.8012088495 0.8508181059 0.0114452666
H 0.3702294566 -0.0050795712 -1.3640569483
H -0.6372509835 0.6972129902 1.4428650787
H -0.7376881357 1.7759898976 0.052826042
H 1.706114433 1.8752974402 -0.3659736433
H 1.9927384734 0.9074629257 1.0887203557
H 2.6686258123 0.3860904516 -0.4628632829
H 1.0526264697 -1.4844183659 1.4901114528
H -2.1635724068 -0.9782254608 0.1953289765
