13
generated by pescan.py
S 0.7151311332 -1.7345307321 0.2062312194
S -2.3082738705 -0.0522119439 -0.1375200166
C 0.528085287 0.0454044997 -0.2799600912
C -0.7084862726 0.6960543971 0.3541903597
C 1.795752019 0.8533550303 0.0137014829
H 0.3740753223 -0.0154948282 -1.3622273551
H -0.6276554151 0.6888603132 1.4463466311
H -0.7682410319 1.742494386 0.0408327509
H 1.6874167244 1.880432445 -0.3536541335
H 1.9928259034 0.902473555 1.090367114
H 2.6657354004 0.4032298528 -0.4697699562
H 1.054710006 -1.5006327398 1.4911521747
H -2.1613752057 -0.784434235 0.14930982
