13
generated by pescan.py
S 0.5092461529 -1.4983072073 1.1142948257
S -2.2340243441 0.1817796368 0.8990348786
C 0.4048939463 -0.0004682741 0.0195343895
C -0.6249092046 0.9813038817 0.5845883381
C 1.7697159633 0.6444722086 -0.2227531543
H 0.0141658991 -0.4188743867 -0.9139356889
H -0.2463561923 1.4405535688 1.5045902963
H -0.8101318205 1.7940529048 -0.1317887603
H 1.6751603915 1.4793161105 -0.9270407214
H 2.1934149707 1.0386915816 0.7073572814
H 2.4763304886 -0.0778451769 -0.6389103237
H 1.0274843562 -0.8589750597 2.1849912516
H -1.9152916072 -1.5806987882 -1.9909616127
