13
generated by pescan.py
S 0.5239260997 -1.5041387335 1.0917938306
S -2.1987314084 0.1007106808 0.8870579545
C 0.430811966 -0.0013557512 0.0010025615
C -0.6229088578 0.961726783 0.553636017
C 1.7928371425 0.6580452683 -0.2112505818
H 0.0598544941 -0.4191584062 -0.9410957813
H -0.2549451269 1.4434301098 1.466478936
H -0.8334660349 1.7557146202 -0.1755794762
H 1.7022575347 1.4984154903 -0.9094907824
H 2.1968336948 1.0465520409 0.7297746079
H 2.5127372547 -0.0538695199 -0.6223949328
H 0.9563984903 -0.8580039532 2.1957069975
H -2.0259072488 -1.5030656292 -1.8766413506
