13
generated by pescan.py
S 0.4736925185 -1.6754886253 0.1477064069
S -2.3562803369 0.0732209542 0.0403773524
C 0.4532889765 0.1357508672 -0.2938559651
C -0.737819326 0.8718237263 0.3506743129
C 1.7942133703 0.7978047855 0.021856987
H 0.2950099793 0.0925443019 -1.3767143232
H -0.5602077371 0.9777152363 1.4279226697
H -0.7631261922 1.8798886509 -0.0774945658
H 1.7697250712 1.8413878799 -0.3110996491
H 1.9941031046 0.7973485708 1.0984290449
H 2.6238138957 0.2967114496 -0.4824831208
H 0.641770013 -1.5242839647 1.4796450433
H -1.388486337 -1.4394198325 0.1640358071
