13
generated by pescan.py
S 0.7064782891 -1.7299330855 0.2078672118
S -2.3153207115 -0.0217102299 -0.1454189457
C 0.5255304883 0.0499849637 -0.2803354504
C -0.7074963919 0.70637532 0.354622967
C 1.7976239354 0.8515822871 0.0128161095
H 0.3711757598 -0.0109567256 -1.3624909903
H -0.6281416021 0.6964440216 1.4467150757
H -0.7599175247 1.7542363551 0.043558601
H 1.694069261 1.8782966053 -0.3565367026
H 1.9942378154 0.9016572068 1.089486841
H 2.6659190236 0.3966035248 -0.4693250683
H 1.0459659819 -1.4939401918 1.4922907878
H -2.1504243243 -0.8536400517 0.1557495635
