12
3776
 O   -0.000400    1.357200   -0.124200
 C    0.000000    0.017700    0.360100
 C   -1.259900   -0.687800   -0.117900
 C    1.260300   -0.687100   -0.117900
 H   -0.000100    0.064600    1.454000
 H   -1.307900   -1.713900    0.259000
 H   -2.150700   -0.148400    0.221300
 H   -1.306100   -0.713800   -1.212200
 H    1.308900   -1.713200    0.259000
 H    2.150800   -0.147100    0.221300
 H    1.306600   -0.713100   -1.212200
 H   -0.000600    1.324200   -1.096100
