C3H8Se
APtclcactv11031816153D 0   0.00000     0.00000
 
 12 11  0  0  0  0  0  0  0  0999 V2000
   -1.7302    1.2492    0.1457 C   0  0  0  0  0  0  0  0  0  0  0  0
   -1.0705   -0.0000   -0.4418 C   0  0  0  0  0  0  0  0  0  0  0  0
    0.8389    0.0000    0.0006 Se  0  0  0  0  0  0  0  0  0  0  0  0
    0.7833   -0.0000    1.5596 H   0  0  0  0  0  0  0  0  0  0  0  0
   -1.7302   -1.2492    0.1457 C   0  0  0  0  0  0  0  0  0  0  0  0
   -1.2602    2.1392   -0.2728 H   0  0  0  0  0  0  0  0  0  0  0  0
   -2.7920    1.2492   -0.1003 H   0  0  0  0  0  0  0  0  0  0  0  0
   -1.6081    1.2492    1.2289 H   0  0  0  0  0  0  0  0  0  0  0  0
   -1.1925    0.0000   -1.5249 H   0  0  0  0  0  0  0  0  0  0  0  0
   -2.7920   -1.2492   -0.1003 H   0  0  0  0  0  0  0  0  0  0  0  0
   -1.2602   -2.1392   -0.2728 H   0  0  0  0  0  0  0  0  0  0  0  0
   -1.6081   -1.2492    1.2289 H   0  0  0  0  0  0  0  0  0  0  0  0
  1  2  1  0  0  0  0
  2  3  1  0  0  0  0
  3  4  1  0  0  0  0
  2  5  1  0  0  0  0
  1  6  1  0  0  0  0
  1  7  1  0  0  0  0
  1  8  1  0  0  0  0
  2  9  1  0  0  0  0
  5 10  1  0  0  0  0
  5 11  1  0  0  0  0
  5 12  1  0  0  0  0
M  END
$$$$
