11
generated by pescan.py
F 0.632653111 1.2299891191 -0.7330275879
C -0.5779294839 -1.0585686866 0.2522787694
C 0.7808239775 -0.6584963122 -0.0914167503
C -1.7562521671 -0.1350737683 0.1515899319
H -0.7568562733 -2.059410875 0.6524969583
H -2.6921222459 -0.6453819827 0.3986041133
H 1.2320363902 -0.9752693246 -1.0307354184
H 1.4892113808 -0.3736003117 0.6858376859
H -1.658472511 0.7277346992 0.8299602153
H 0.4688657746 2.1154947204 -1.0140582907
H -1.855062953 0.2877837225 -0.8583346269
