11
generated by pescan.py
F 0.6924156395 1.6682769611 -0.5910914652
C -0.3860237691 -0.5065835307 0.4884123878
C 0.7034632197 -0.8266969454 -0.4330299612
C -1.7432795411 -0.1101299523 -0.0217377712
H -0.3409045335 -0.9053436423 1.5067827214
H -2.2774064692 -0.9834103119 -0.4319728053
H 0.7255616043 -1.8240372342 -0.8815288683
H 1.6154439717 -0.2524683684 -0.5128577459
H -2.3715238999 0.3067932085 0.7720675474
H 0.3425584294 1.2701243867 0.180925236
H -1.6534076517 0.6186744289 -0.8327752754
