11
generated by pescan.py
F 1.4461939701 1.0721059269 0.3198331322
C -0.6839187842 -0.6975407602 0.2549674816
C 0.6524734702 -0.7456673558 -0.3698827977
C -1.487686133 0.5433337413 -0.1440048993
H -0.5723326132 -0.7645430998 1.3414581343
H -1.2036507624 -1.6222104933 -0.058370846
H 1.4271804803 -1.3779229948 0.050211956
H 0.7549937629 -0.5052965862 -1.4235065131
H -2.4522674423 0.5663133657 0.3699953097
H -0.8981787912 1.420754194 0.1253102834
H -1.6759061572 0.5658750621 -1.2228072409
