11
generated by pescan.py
F 1.3163623659 0.3182714492 -0.0121594811
C -0.6227673768 -0.5699498241 0.3229911778
C 0.9262330796 -0.3450149865 -0.2309067581
C -1.5441077606 0.5721005984 -0.1128301765
H -0.6059313628 -0.6444279476 1.4230851825
H -0.9546191861 -1.5349193156 -0.0725456082
H 1.4091558947 -1.4317915787 0.0446457702
H 0.7350748665 -0.5455728809 -1.4252838113
H -2.5752901456 0.4427091737 0.2347614567
H -1.2035922425 1.5419866002 0.2781870813
H -1.5736181324 0.651808712 -1.2067448333
