11
generated by pescan.py
F 1.2244843011 1.8572719968 0.2806080824
C -0.7132367292 -0.8065192914 0.2333480783
C 0.5792554374 -0.9915743194 -0.4033163854
C -1.3730431213 0.555323712 -0.1001544769
H -0.6494275607 -0.9769300495 1.3108895284
H -1.3624416109 -1.6081233073 -0.1831308807
H 1.4311943518 -1.4207892491 0.1148398524
H 0.7054673796 -0.7635012231 -1.4581267254
H -2.3286947908 0.6371600535 0.4245802453
H -0.6472961916 1.3272504395 0.19881246
H -1.5593614653 0.6456302381 -1.1751477785
