11
generated by pescan.py
F 1.4485905821 0.9941171342 0.3191747116
C -0.6770883664 -0.6849914243 0.2584390801
C 0.6668039331 -0.7162090681 -0.3617026045
C -1.4958269116 0.5430366346 -0.1467718465
H -0.5651348922 -0.7419141961 1.3456103573
H -1.184039317 -1.6173867437 -0.0486705754
H 1.4219178783 -1.3851546509 0.0376333316
H 0.7595995926 -0.4851696902 -1.418671266
H -2.4621486229 0.5568557129 0.364411128
H -0.9239064379 1.4327910377 0.1199109628
H -1.6818684382 0.559226254 -1.2261582791
