11
generated by pescan.py
F 1.4165505311 1.3197155584 0.3276053284
C -0.7006166414 -0.734427038 0.2460208155
C 0.6187761174 -0.8278566224 -0.3875797585
C -1.4593844803 0.5436258741 -0.1363187799
H -0.5961427997 -0.8316206354 1.3305543831
H -1.2571332414 -1.6333518024 -0.09038019
H 1.4315899165 -1.3782461725 0.073996697
H 0.7406557563 -0.5628821902 -1.433108547
H -2.4143447561 0.598369145 0.3926127212
H -0.8132050907 1.381869721 0.1320220705
H -1.6598453117 0.5800041624 -1.2122237403
