11
generated by pescan.py
F 0.6177415329 2.0590657755 -0.2754303875
C -0.3503526626 -0.5303097128 0.462062973
C 0.6898787128 -1.0363936704 -0.4268547681
C -1.7008028306 -0.1313326747 -0.0667333289
H -0.2645410508 -0.7215391927 1.5350193482
H -2.2364485753 -0.9989524045 -0.48396023
H 0.684548844 -2.069583375 -0.7742279958
H 1.440956217 -0.3743807303 -0.8511365452
H -2.3303358568 0.3031443355 0.715252709
H 0.3530760496 1.3590589723 0.2888810231
H -1.5968223803 0.5964206772 -0.8796767979
