11
generated by pescan.py
F 0.2695931799 2.1320586791 0.774656146
C -0.4248640993 -0.7316468949 0.2530332215
C 0.6894997653 -1.0197402924 -0.4294362325
C -1.6665497848 -0.1157776324 -0.3248955013
H -0.4513463724 -0.9429067235 1.322772901
H -2.550366753 -0.7213396819 -0.0945593438
H 1.5569641022 -1.4604147177 0.053039858
H 0.7638225434 -0.8387857065 -1.4993709337
H -1.8231545761 0.876980764 0.1104775805
H 0.5368735402 1.2844439745 0.4883832477
H -1.5935745455 -0.0076707683 -1.4108969434
