11
generated by pescan.py
F 1.4398306598 0.8629920733 0.2769390476
C -0.6638151531 -0.6639904464 0.2643195345
C 0.6990664945 -0.6577567549 -0.3383581625
C -1.5060049349 0.5461716986 -0.144358398
H -0.5646537505 -0.7182876111 1.3532094771
H -1.1473637172 -1.6031619466 -0.0508111717
H 1.4144570295 -1.3864213105 0.0325775841
H 0.7652879782 -0.4786922341 -1.4089143843
H -2.4805450971 0.5328516754 0.3513496742
H -0.9726067872 1.4565710932 0.1336309721
H -1.6767537222 0.5649237631 -1.226381173
