11
generated by pescan.py
F 0.4549552541 2.1804223424 -0.1899557062
C -0.320828587 -0.5347387261 0.4435253548
C 0.6926320467 -1.1014673547 -0.4403812149
C -1.6676001319 -0.1155669033 -0.0792737909
H -0.2287614117 -0.7064931026 1.5195044216
H -2.2234412799 -0.9793300441 -0.4773556772
H 0.6474849362 -2.1428132398 -0.7592257423
H 1.4731860196 -0.4843837513 -0.880219386
H -2.2801764374 0.3428109782 0.7023697856
H 0.3186858456 1.3971209127 0.3063855061
H -1.5592382545 0.5996358885 -0.9021755506
