11
generated by pescan.py
F 0.1745305274 2.3193161006 0.1861779686
C -0.2641771445 -0.509939037 0.3671217526
C 0.6989480021 -1.1751011267 -0.5023237075
C -1.6215593505 -0.0924961738 -0.1290135553
H -0.1528153314 -0.629251182 1.4495041152
H -2.270467077 -0.97180067 -0.272883351
H 0.6135868286 -2.2376446307 -0.7316729951
H 1.5251612617 -0.6420111209 -0.9676873527
H -2.118815231 0.5750632271 0.5797172639
H 0.2760337449 1.4031519921 0.35980113
H -1.5535292303 0.4159096214 -1.0955412687
