11
generated by pescan.py
F -0.0411780952 2.3790537428 0.858801828
C -0.1959067868 -0.455818319 0.2243490197
C 0.6966469747 -1.2791057544 -0.5811570741
C -1.5872134299 -0.1006733589 -0.2244805692
H -0.0057211217 -0.3891370772 1.3005182165
H -2.2946113857 -0.9153682774 0.0020340896
H 0.5900280881 -2.3638106286 -0.6143097097
H 1.4973721278 -0.8524517904 -1.1815177517
H -1.9411304756 0.7975460578 0.2896179331
H 0.2188027748 1.5663589621 0.4742662609
H -1.6301896706 0.0686044431 -1.3049232432
