11
generated by pescan.py
F 1.3258738191 0.435346147 0.0359471072
C -0.6138744081 -0.594230951 0.2924282244
C 0.8631589474 -0.405262654 -0.2456054482
C -1.5256745646 0.5657303075 -0.1209340644
H -0.5856786315 -0.6687324818 1.3902527768
H -0.9959499039 -1.5486337862 -0.0862008902
H 1.377337481 -1.3864839113 0.0454184524
H 0.743844656 -0.5568948784 -1.3769746026
H -2.5400551515 0.4515597259 0.2744369418
H -1.1416868177 1.5252052512 0.2471139254
H -1.6003954262 0.6375972311 -1.2126824226
