11
generated by pescan.py
F 0.4211254187 1.1708981055 -1.4441330652
C -0.5493392287 -0.8941710036 0.2532447619
C 0.785868083 -0.403252295 -0.102859997
C -1.7973269706 -0.07509705 0.1512287093
H -0.609820729 -1.8657033621 0.7471931887
H -2.6891035217 -0.7084582122 0.1113842524
H 1.2977966067 -0.8533289076 -0.9521799442
H 1.482559123 -0.1716357631 0.7185382552
H -1.9249282687 0.5942961677 1.0206582412
H 0.6623274303 1.0986689299 -0.5233718456
H -1.772261943 0.5629843905 -0.7365065566
