11
generated by pescan.py
F 0.2232920797 2.1805987487 0.806246908
C -0.4129245001 -0.737301055 0.2481408959
C 0.6880376607 -1.0559272337 -0.4423167138
C -1.6523742475 -0.1114272049 -0.3250653456
H -0.4323391912 -0.9363013946 1.3204824952
H -2.539220674 -0.7130512268 -0.0956464076
H 1.5524789891 -1.506102331 0.0367084778
H 0.7544951928 -0.889527202 -1.5151680946
H -1.8034455788 0.8804938654 0.1139275491
H 0.5096148943 1.3440943487 0.5068250561
H -1.580717625 -0.0003493149 -1.4109308205
