11
generated by pescan.py
F 1.4419909644 1.1457595557 0.3362253113
C -0.688993429 -0.7080385868 0.2524048249
C 0.6395261422 -0.7736203979 -0.3793379552
C -1.480151906 0.5423309227 -0.1443154669
H -0.5737495263 -0.7789780204 1.338146412
H -1.221587196 -1.6273811815 -0.0595015056
H 1.4274282606 -1.3815029468 0.0518235118
H 0.7502658641 -0.5145453924 -1.4275065706
H -2.4410768524 0.5767642938 0.3756688855
H -0.8729446572 1.4088973265 0.1216383326
H -1.6738076646 0.565515427 -1.2220437799
