11
generated by pescan.py
F 0.8013747589 0.7593146306 -0.765360675
C -0.6503237423 -1.0488743478 -0.073252907
C 0.7077993131 -0.4977548143 0.0476714468
C -1.8154283581 -0.3221811184 0.5033921589
H -0.8283727496 -1.8390383059 -0.7978487722
H -2.7023219835 -0.957940282 0.5799067316
H 1.4835842933 -1.1615426241 -0.3386107294
H 0.9505116916 -0.181737237 1.067478113
H -1.586296903 0.0808429901 1.4976553684
H 1.028889925 3.0822888405 -2.3520086868
H -2.0825222454 0.5418232683 -0.1258250483
