11
generated by pescan.py
F 0.3138957781 2.1081601173 0.6723860375
C -0.4384895338 -0.740853815 0.2650372139
C 0.6922792447 -0.9872790438 -0.4070024169
C -1.6754620796 -0.1151655491 -0.3111533096
H -0.481121404 -0.9955346159 1.3247197338
H -2.5559477626 -0.7397817362 -0.1232625359
H 1.5553812754 -1.4382792369 0.0736640074
H 0.7830332081 -0.7646201593 -1.4677873419
H -1.8516912377 0.8579930141 0.1592641894
H 0.5475969993 1.2316425189 0.4473657876
H -1.5825774879 0.0389195058 -1.3900283652
