11
generated by pescan.py
F 1.3136388078 1.6871513772 0.2707564023
C -0.7174078675 -0.790078811 0.2344028116
C 0.5904827769 -0.9353098034 -0.3923730067
C -1.4042755538 0.5499913261 -0.1093442781
H -0.6477891838 -0.9469578218 1.3140651814
H -1.3315193076 -1.6242091193 -0.168660393
H 1.4339438375 -1.3892051944 0.1180086027
H 0.7238662456 -0.6875865002 -1.4414190254
H -2.3551163528 0.6289648183 0.4242308966
H -0.6963266781 1.3369058657 0.1768243672
H -1.6025967242 0.6255338626 -1.1832895586
