11
generated by pescan.py
F 0.0856416112 2.3035909965 0.9529471095
C -0.3718098458 -0.7406770045 0.2246174011
C 0.6783760821 -1.1623378594 -0.4878870299
C -1.6105938512 -0.1022470151 -0.3385902241
H -0.3543815243 -0.8703217765 1.3078361769
H -2.5038703457 -0.6835542789 -0.081156749
H 1.5418389085 -1.6216385565 -0.0158622639
H 0.704740556 -1.0695486192 -1.5712252309
H -1.7423340439 0.8995714066 0.0840241414
H 0.4373532814 1.5185678953 0.5964197844
H -1.5580648282 -0.0162051883 -1.4279201156
