11
generated by pescan.py
F 1.3173810909 0.381408299 0.0058835531
C -0.6152025108 -0.5836639673 0.3036886525
C 0.8923407388 -0.373345437 -0.2384268379
C -1.5324190157 0.5692437935 -0.1166030935
H -0.5947315703 -0.6609092624 1.4025997655
H -0.9760391838 -1.5416860451 -0.0851331897
H 1.387514743 -1.3995723224 0.0496114025
H 0.7388208503 -0.563289725 -1.3913981605
H -2.5540944513 0.4456104192 0.2576651515
H -1.1688915277 1.5330062669 0.2646839856
H -1.5877791635 0.6483979805 -1.209371229
