11
generated by pescan.py
F 1.3516427103 0.5388943991 0.1053590677
C -0.6222815596 -0.6133602584 0.2785874245
C 0.8153650151 -0.4694184872 -0.2630311617
C -1.5190373744 0.5594100224 -0.1289276622
H -0.5780565873 -0.6829272329 1.3740752064
H -1.0358429711 -1.5623729706 -0.08271462
H 1.3793482233 -1.3791594316 0.0388498982
H 0.7575427443 -0.5284936193 -1.3737097697
H -2.5184219212 0.4720900408 0.307912073
H -1.0903117644 1.5099040235 0.2048140174
H -1.6330465149 0.6106335142 -1.2180144737
