11
generated by pescan.py
F 0.6311164709 1.17863413 -0.7120143211
C -0.5720222489 -1.0351491278 0.2433231475
C 0.7812592932 -0.6162525765 -0.1071676538
C -1.7624840422 -0.1278056992 0.1495990475
H -0.734905286 -2.0393237803 0.6416285573
H -2.6895215714 -0.6502041664 0.4041517636
H 1.238801684 -0.9792155261 -1.0273400198
H 1.4957083968 -0.3801613172 0.6818244931
H -1.6721964111 0.7384336092 0.8246895774
H 0.4655510393 2.0746803718 -0.9948797052
H -1.8744123245 0.2915660824 -0.8606198865
