11
generated by pescan.py
F 0.7569652454 1.9305641787 -0.3196731191
C -0.3728699811 -0.5114097999 0.4666628997
C 0.6857945518 -0.9665277946 -0.4282755539
C -1.7325643988 -0.1439281305 -0.0595235968
H -0.2876570249 -0.7250821057 1.5356457398
H -2.254910461 -1.0271074251 -0.4615203694
H 0.7105814971 -1.9958891001 -0.7869516018
H 1.4324730462 -0.2831269541 -0.8206917473
H -2.366987517 0.2886050499 0.7198352625
H 0.3825390508 1.3166274338 0.2822046287
H -1.6464670085 0.5724736475 -0.8845165424
