11
generated by pescan.py
F 1.3958209737 1.4121666952 0.3140500407
C -0.7066162035 -0.7496845386 0.2423711806
C 0.6103826139 -0.8547947241 -0.3887817339
C -1.4463949455 0.5448048489 -0.130250657
H -0.611711545 -0.8641155024 1.3259748201
H -1.2767435351 -1.6339248675 -0.1120149361
H 1.4338987309 -1.3754789422 0.0882975305
H 0.7369753363 -0.591137479 -1.4342168574
H -2.3976356261 0.6100428571 0.4041459623
H -0.7800492879 1.3680510954 0.1385875593
H -1.6510255117 0.5892705572 -1.2049629091
