12
generated by pescan.py
S 3.6289059223 0.780812691 -0.0990333305
C -0.9100018643 0.2916717016 -0.0030719098
C -0.0031721431 -0.8931041719 -0.0214778901
C -2.4097348708 -0.0781932902 0.0865544777
H -0.6593849774 0.9400773433 0.8461735056
H -0.7574972193 0.8927050515 -0.9100545221
H 0.3813746552 -1.3191623303 0.899103871
H 0.1614811614 -1.4517236731 -0.9376003872
H -2.6206522987 -0.6446785151 0.9991768797
H -3.0332045531 0.8229982251 0.093695718
H -2.7141312007 -0.6939817568 -0.7659462733
H 3.6486213885 1.256380725 -1.3645181391
