12
generated by pescan.py
S 3.2326037519 0.5727561709 -0.0419983648
C -0.8119383725 0.3904956708 -0.0082955519
C 0.1052867232 -0.7611829606 -0.0197782629
C -2.2881184923 -0.1136524371 0.0583809908
H -0.6182723579 1.0241374492 0.8619795428
H -0.6863850894 0.9946624034 -0.911296046
H 0.3737699618 -1.2655434611 0.9020685009
H 0.3503311911 -1.2744047745 -0.9432912807
H -2.4663070651 -0.7019832017 0.9624614234
H -2.9567268279 0.7522408061 0.0734595229
H -2.5392086641 -0.7279427654 -0.8104060299
H 3.0175642413 1.0142161 -1.3002824445
