12
generated by pescan.py
S 3.0742083714 -1.1546386318 -0.8119812377
C -0.8504402722 0.6754690135 0.1550614207
C 0.5378367049 0.0967133272 -0.1709364117
C -1.9804279187 -0.3383260834 -0.0376092932
H -0.8533598472 1.0411273445 1.1896494837
H -1.0307958746 1.5528184619 -0.4793125373
H 0.7505393616 -0.7606371057 0.4788327692
H 0.5663925562 -0.2488722556 -1.2101732679
H -1.8521410352 -1.2064508624 0.6191214067
H -2.9569435554 0.1045515197 0.1843654278
H -2.0087646785 -0.7076339046 -1.0691023355
H 1.3165031878 0.8496781766 -0.0249094249
