12
generated by pescan.py
S 4.5177928163 1.0620504442 -0.1571857555
C -1.0505616561 0.2416060731 -0.0127305078
C -0.1632600977 -0.9578345134 -0.0237237103
C -2.5532745768 -0.1014766286 0.1280961437
H -0.7692239075 0.9074625066 0.8142588281
H -0.9123245724 0.8161521312 -0.9381394789
H 0.1450952649 -1.4313404824 0.9031042666
H 0.0469999259 -1.487111125 -0.9478845594
H -2.7467156053 -0.6421656966 1.0599904873
H -3.1606348465 0.8105005729 0.1316322169
H -2.8910462412 -0.7314691499 -0.7008265011
H 4.2497574964 1.4174268679 -1.4335844297
