12
generated by pescan.py
S 2.1617397724 0.1073771625 0.0157237528
C -0.6257535781 0.5169389884 -0.0132513763
C 0.4833127299 -0.5412066794 -0.0314232572
C -2.0232869685 -0.112026781 0.0096480715
H -0.4862142815 1.1661463108 0.8584482949
H -0.5230623773 1.1597565425 -0.8970242573
H 0.4083507604 -1.1740706946 0.8598677005
H 0.3637683807 -1.2051490908 -0.8943112132
H -2.1627731005 -0.735563411 0.8998952801
H -2.8022386431 0.6566909959 0.0169200855
H -2.1898163481 -0.7464642419 -0.868183944
H 2.1085736537 0.8113708985 -1.1333091374
