12
generated by pescan.py
S 3.3808465945 0.6238296079 -0.0614961822
C -0.8404927329 0.3742134881 -0.0046222311
C 0.0670206424 -0.7820609805 -0.0164629752
C -2.3233453937 -0.1159659167 0.0643911757
H -0.6424965367 1.0076502046 0.8651649322
H -0.7135567132 0.9756735266 -0.9096151017
H 0.3576323811 -1.2738960222 0.9058104562
H 0.318095092 -1.2922999744 -0.9405892354
H -2.5056754662 -0.7012801994 0.9693612065
H -2.9816716168 0.7577188498 0.0787816361
H -2.5801100537 -0.7284507774 -0.8037723379
H 3.1763548033 1.0586681937 -1.3239473432
