12
generated by pescan.py
S 4.2674320269 0.9470844215 -0.1345439
C -1.0116849414 0.2734915132 -0.0237128065
C -0.1556532767 -0.914537363 -0.031212658
C -2.5215638055 -0.1223268177 0.1292565767
H -0.7516304837 0.9286736636 0.8155283656
H -0.9020369817 0.836887875 -0.9565276853
H 0.189372179 -1.3658459495 0.8934386898
H 0.0873419658 -1.4325717026 -0.9532922786
H -2.6930627416 -0.6625854094 1.0632253315
H -3.1219142472 0.7921613876 0.1376149563
H -2.8491723094 -0.7489985824 -0.7034655578
H 4.1751756156 1.3723679638 -1.4133010337
