12
generated by pescan.py
S 2.5975789261 0.3330072116 -0.008025173
C -0.6907352011 0.4620194502 -0.0027062342
C 0.3018269386 -0.6566978729 -0.0103089723
C -2.1294315904 -0.1037759984 0.019720516
H -0.528579013 1.0972535828 0.8725557527
H -0.5604811105 1.0895647056 -0.8897076063
H 0.4220439872 -1.2307691907 0.903998942
H 0.4041915061 -1.2461322304 -0.916944509
H -2.3027259465 -0.7193210696 0.9081091026
H -2.8537239886 0.7165641832 0.0319310399
H -2.3320152208 -0.7189463538 -0.8628410264
H 2.384651713 0.8810325824 -1.2227798321
