12
generated by pescan.py
S 3.53677471 0.6656214112 -0.0872653718
C -0.872321693 0.3609343086 0.0015003805
C 0.0303367456 -0.7969239923 -0.0107629165
C -2.3595425286 -0.1209414829 0.0693953515
H -0.673946429 0.9937658154 0.8719980264
H -0.7445337528 0.961683753 -0.9042357261
H 0.3383673519 -1.2781430509 0.9115449278
H 0.2858616111 -1.3040114901 -0.9354885976
H -2.5451602546 -0.7054443325 0.9740289973
H -3.0116251387 0.7573918573 0.0834012903
H -2.6180892018 -0.7314774709 -0.7994244104
H 3.3464785798 1.1013466741 -1.3516859514
