12
generated by pescan.py
S 2.6845436218 -0.9927965614 -0.7259847998
C -0.8066779654 0.6583122914 0.1461820047
C 0.5993792398 0.0650282295 -0.1846007346
C -1.9401393651 -0.3486241928 -0.0460216196
H -0.7980730221 1.0238066441 1.1804097228
H -0.9726873948 1.5356102468 -0.4916009234
H 0.7543860389 -0.7834783389 0.4881359367
H 0.5628731715 -0.271688262 -1.2241333805
H -1.8171036121 -1.2183705805 0.6095063204
H -2.913179033 0.1005705456 0.1787523443
H -1.9741866565 -0.7159648851 -1.078037262
H 1.333467977 0.8513918633 -0.0296006091
