12
generated by pescan.py
S 4.0603589757 0.8533272886 -0.1253226451
C -0.9722599645 0.3042733073 -0.011946601
C -0.095548256 -0.8693644646 -0.021568878
C -2.4748462581 -0.1266029939 0.1083720872
H -0.7383745515 0.9512365584 0.8408069808
H -0.8568500964 0.8835549054 -0.9339514083
H 0.2355911677 -1.3316199636 0.9026399893
H 0.16700853 -1.3728105061 -0.9462951589
H -2.6510691491 -0.6847864277 1.0309249339
H -3.095502461 0.7742233313 0.1201410244
H -2.7746762871 -0.7470638748 -0.7393900262
H 3.9087713502 1.2694348396 -1.4014052981
