12
generated by pescan.py
S 2.8000863901 0.4125274697 -0.0224749773
C -0.7249928319 0.4365725757 -0.0030906535
C 0.2304741912 -0.6996532318 -0.0104227078
C -2.1799178113 -0.1046462491 0.0294502292
H -0.5523215728 1.0692571658 0.8715904117
H -0.591795309 1.0549577441 -0.8953053342
H 0.4191268573 -1.2432976678 0.9093967118
H 0.3957891984 -1.2604024961 -0.9246814068
H -2.3610527055 -0.7094725765 0.922939364
H -2.8812551236 0.7352956586 0.0401229166
H -2.3987017041 -0.7185976321 -0.8493772027
H 2.5571634211 0.9312582395 -1.245144351
