12
generated by pescan.py
S 1.9758961663 0.0157252859 0.0228423463
C -0.6099298301 0.5418938426 -0.0116259826
C 0.5633211908 -0.4842588033 -0.0453345587
C -1.9883185821 -0.1195823968 0.0053868224
H -0.4775105099 1.1885904509 0.8641865084
H -0.5147224159 1.1920988455 -0.8922905077
H 0.4094249822 -1.1305860787 0.8344309385
H 0.3290652924 -1.1765389464 -0.877922033
H -2.1135380116 -0.7529591373 0.8912469741
H -2.7892659813 0.6260901309 0.0168585649
H -2.1377032587 -0.7527671045 -0.8765598079
H 2.065880958 0.7560939111 -1.1082192648
