12
generated by pescan.py
S 1.7608973656 -0.0942726619 -0.0148873611
C -0.6194164591 0.5916801008 0.0260124289
C 0.7135581347 -0.4262802375 -0.0682886335
C -1.9576407821 -0.1284674796 0.0035705203
H -0.4793350182 1.1987825471 0.9299454771
H -0.502177433 1.2572996893 -0.8399163399
H 0.4088889874 -1.067760238 0.7811936194
H 0.2561961889 -1.1564486112 -0.8607574035
H -2.1089442764 -0.7254048058 0.911119376
H -2.7966849015 0.5710404397 -0.07091131
H -2.0221959483 -0.8098084286 -0.8536085962
H 2.059454142 0.6934396857 -1.1204717775
