12
generated by pescan.py
S 2.409070974 0.2318380917 0.002028509
C -0.657475481 0.4845742768 -0.0098121166
C 0.3781682121 -0.6137500304 -0.01832796
C -2.0800049883 -0.1038058474 0.0149675306
H -0.5023193655 1.1275343555 0.8620347487
H -0.5372691323 1.1167149563 -0.8965004782
H 0.4148953324 -1.217107424 0.8876368584
H 0.3947354858 -1.2371026299 -0.9106400684
H -2.2416406199 -0.7172411348 0.9076531372
H -2.8265302457 0.6965750871 0.0195295865
H -2.2686517914 -0.7322837937 -0.8619358392
H 2.2296226198 0.8678540928 -1.1736339079
