12
generated by pescan.py
S 2.3467029248 0.2019912061 0.0059907161
C -0.6487269957 0.492423635 -0.0105421776
C 0.4046434256 -0.5965688577 -0.0205883999
C -2.0652636736 -0.1051561772 0.01327461
H -0.4976179535 1.1369008461 0.8613296387
H -0.5323118245 1.1274811854 -0.8962505207
H 0.4130472166 -1.2085364971 0.8818642857
H 0.389733379 -1.2297458373 -0.9073863604
H -2.2221612433 -0.720971803 0.9053990138
H -2.8196763228 0.6877734997 0.0180794821
H -2.2484863713 -0.7353596241 -0.8637476794
H 2.1927194386 0.8535694241 -1.1644226084
