11

Cl -0.0192241986 0.4595051816 2.6804752894
Cl 0.2070004097 1.7991939852 0.2621610624
C -0.7763664868 -0.7802282853 -0.4374247668
C -0.5421738551 0.494962602 -1.0560644215
C 0.2951510524 -1.7844401703 -0.2129735132
H -1.734827274 -0.9351542367 0.0512427653
H -1.4295797859 1.0359308318 -1.3735884748
H 0.2555209061 0.5186260232 -1.7960773562
H 1.1470809005 -1.6413480736 -0.8845269742
H 0.6619444819 -1.6958690504 0.8210947813
H -0.0842401502 -2.8057808076 -0.3295173917
