11

Cl -1.3484078629 1.387072806 0.1066503064
Cl 2.2463820794 -0.0159593846 1.043542924
C -0.6980654459 -0.1768977924 -0.543626756
C 0.6860765522 -0.0309345438 -1.0361739845
C -0.9241483249 -1.3270114348 0.4347969954
H -1.2849691943 -0.3592608601 -1.462355464
H 1.1705309586 -0.9162427027 -1.4360872926
H 1.0447223608 0.9311285924 -1.3815681282
H -0.3528828447 -1.1413287439 1.3452478744
H -1.9859036215 -1.422582018 0.6676253454
H -0.5730356567 -2.262586918 -0.0132498203
