11

Cl -1.6185338884 1.3686233933 -0.1693055623
Cl 2.4454000493 -0.7718654662 1.9317933375
C -0.8123785907 -0.1587391317 -0.6951682856
C 0.4724560375 0.0762862013 -1.3236831051
C -0.7549132727 -1.2037636382 0.4605636645
H -1.4683095004 -0.6026869573 -1.4665278911
H 0.9832962799 -0.757116035 -1.7983444311
H 0.9333040761 1.0573384275 -1.3644145218
H -0.1019240048 -0.8220221206 1.2500158582
H -1.7714036265 -1.3842714492 0.8153365442
H -0.3266925593 -2.1363842239 0.0845343927
