11

Cl 0.0497582094 0.4424927289 2.6645303858
Cl 0.1557808239 1.8643243198 0.3011862526
C -0.7728036838 -0.7747199749 -0.4336039528
C -0.5552681186 0.4633809559 -1.0922867798
C 0.2896816452 -1.7866267817 -0.209075346
H -1.7289291915 -0.9228400426 0.0625285676
H -1.4317008562 1.0188746788 -1.4105806077
H 0.2834982727 0.5171808451 -1.7811074361
H 1.1571803571 -1.6316099892 -0.8564325983
H 0.6265891897 -1.7220374813 0.8363020095
H -0.093499648 -2.8030222587 -0.3566594947
