11

Cl -1.4083690206 1.390476337 0.034404714
Cl 2.3821106217 -0.1319082489 1.300227188
C -0.7351906102 -0.1712243788 -0.5854875938
C 0.617986868 -0.0163213388 -1.1235110501
C -0.8990353661 -1.3072159533 0.4320974606
H -1.3491080847 -0.4104655158 -1.4765056478
H 1.1321163297 -0.8987375083 -1.4919277959
H 1.0285874547 0.9555995609 -1.3700262566
H -0.2786495062 -1.0938935095 1.3045563026
H -1.9481868241 -1.4028969513 0.7157920322
H -0.5619628622 -2.2480144933 -0.0148183532
