11

Cl -1.2648042818 1.3720875866 0.2631880537
Cl 1.7802452318 0.1304616906 0.3560756878
C -0.5790989263 -0.1748088775 -0.4509569735
C 0.9906328858 -0.0061056878 -0.6675755488
C -0.9451722913 -1.3481322151 0.4428213764
H -1.0431094121 -0.2613828547 -1.4350177751
H 1.1482215546 -0.8976997287 -1.3334767803
H 0.9995694149 0.8001704355 -1.4407883029
H -0.5085180156 -1.2397369259 1.43963771
H -2.0282852421 -1.4322127686 0.5534160084
H -0.5693809177 -2.2772406543 -0.0025254557
