11

Cl 0.1008145485 0.380965279 2.7141753472
Cl 0.1609222255 1.9133051957 0.4535558744
C -0.766779358 -0.7621652533 -0.4595374652
C -0.6002652871 0.3767300533 -1.225590392
C 0.2899817318 -1.768847614 -0.2029376021
H -1.7128540496 -0.8904489866 0.0626652452
H -1.4484423055 1.0076554971 -1.4621918902
H 0.288879175 0.501204915 -1.8349632452
H 1.1606151072 -1.6390694314 -0.8499175625
H 0.6114464761 -1.6680330669 0.8445939964
H -0.104031264 -2.7858975881 -0.3150503059
