11

Cl -0.1586871702 0.3998604378 1.8011558602
Cl 0.549868755 2.4706723903 0.2019577641
C -0.7043032663 -0.7237958831 -0.0940256964
C -0.6797484273 0.2956515144 -1.0618961289
C 0.3126226222 -1.8296917745 -0.1166821336
H -1.6775947911 -0.9720819568 0.3206505501
H -1.5221816823 0.9618548849 -1.1955114592
H 0.1719915739 0.4203342399 -1.7191131481
H 1.3149414282 -1.442802069 -0.31422201
H 0.3236934796 -2.3839839976 0.8228644771
H 0.0496864784 -2.5306187862 -0.9203740753
