11

Cl -1.276307107 1.3677643695 0.2889298974
Cl 1.6757389733 0.2161806057 0.2501178293
C -0.6255549901 -0.1705469017 -0.4533744382
C 1.1176710828 0.0320429468 -0.5589890587
C -0.9598067016 -1.3540828884 0.4243683515
H -1.0244437817 -0.2347257849 -1.4666425725
H 1.1725713012 -0.9339119442 -1.2278932121
H 1.0144092853 0.7316358312 -1.4812859677
H -0.44019357 -1.284624784 1.3890981048
H -2.0300114903 -1.4267124614 0.6357315172
H -0.6437730018 -2.2776189888 -0.075262451
