11

Cl 0.6920672508 0.4999296978 1.2714889493
Cl -1.1092015203 2.5880685581 1.1621804249
C -0.4137215841 -0.5291059642 -0.0779255153
C -0.3264693218 0.2267478585 -1.2998303079
C 0.148878236 -1.9338236068 -0.0691450934
H -1.3697261354 -0.4303421006 0.4332658905
H -0.9312439014 1.1146003072 -1.4381303351
H 0.4551247621 0.0090548849 -2.0210222179
H 1.1677089744 -1.9579393789 -0.4645403067
H 0.148740342 -2.3584270676 0.9364385334
H -0.4818611023 -2.5633641884 -0.7079770218
