11

Cl -1.287657569 1.3819161871 0.1879576205
Cl 2.0955958686 0.105921626 0.816979838
C -0.6536792534 -0.1787367322 -0.5018261825
C 0.7718828581 -0.0384271271 -0.9342901873
C -0.9418388581 -1.3445570179 0.4341566928
H -1.213916212 -0.305968785 -1.4400977361
H 1.1951358261 -0.9329349698 -1.3843815042
H 1.0407724628 0.8876381936 -1.4303290082
H -0.4196677417 -1.20544569 1.3818046209
H -2.0144203462 -1.427764602 0.6190130115
H -0.5919100351 -2.2762410827 -0.0241851654
