11

Cl 0.7734239878 0.5905978414 1.143057589
Cl -1.284929089 2.3696657614 1.5467806572
C -0.3815466461 -0.479529239 -0.1319500594
C -0.2713044187 0.1940972314 -1.3993132206
C 0.1193309778 -1.9034851335 -0.0375853296
H -1.3247370099 -0.2997818262 0.3808327383
H -0.8362853438 1.1000261158 -1.58449421
H 0.4882423311 -0.101733985 -2.1160751065
H 1.1337649503 -1.9973419988 -0.4343409088
H 0.1063030212 -2.2642897597 0.9923807352
H -0.5419647607 -2.5428260077 -0.6344898847
