11

Cl -1.6560654765 1.3573324709 -0.2199748017
Cl 2.5578818149 -0.7577589083 1.7064516105
C -0.8144218153 -0.1705020097 -0.6932998949
C 0.5029806001 0.074612455 -1.255732986
C -0.8028194332 -1.2005737589 0.472969643
H -1.4256991115 -0.6178131605 -1.4972447358
H 1.0406069994 -0.7520689272 -1.7118035752
H 0.9560947136 1.0597925716 -1.2774290698
H -0.1956783508 -0.8096510292 1.2923865486
H -1.8335822332 -1.3854365745 0.7814736329
H -0.3489997075 -2.1325331292 0.1270016284
