11

Cl -1.3109855077 1.3849623844 0.1537385672
Cl 2.1724288244 0.0597230611 0.9270432265
C -0.6751837949 -0.1779067263 -0.5202214964
C 0.7279215179 -0.0379665279 -0.9870765698
C -0.9353511345 -1.3380741544 0.4332634264
H -1.2500326797 -0.3270860766 -1.4497715378
H 1.186386097 -0.9294697046 -1.4045584106
H 1.043503445 0.9080768088 -1.4104850901
H -0.390252126 -1.1785900672 1.3645149755
H -2.0032082545 -1.4273868605 0.6401022636
H -0.5849283871 -2.2708821369 -0.0217463544
