11

Cl 0.7742802282 0.6747500686 1.0292779918
Cl -1.3236638404 2.2305614508 1.976730556
C -0.3737647201 -0.4396191023 -0.1910258122
C -0.235038625 0.1458516201 -1.503051667
C 0.1006246125 -1.864873424 -0.0068598197
H -1.3291577582 -0.2270490075 0.2862531695
H -0.7938188733 1.0358098769 -1.7684284554
H 0.5365649299 -0.203138489 -2.1819723413
H 1.11952051 -1.9954905617 -0.3810943798
H 0.066340315 -2.1643303796 1.0420402785
H -0.5615877787 -2.5270740523 -0.5770655204
