11

Cl 0.3230678433 1.2037436507 0.6302999816
Cl -0.3922629918 0.5486796454 3.3986467443
C -0.4897108487 -0.2069369409 -0.4910504079
C -0.0177620417 -0.0185738733 -1.8575850347
C -0.1400713565 -1.5293148006 0.1628063171
H -1.5378856191 0.0639040547 -0.3665805003
H -0.470681726 0.7232458854 -2.5051071285
H 0.8814976941 -0.522847353 -2.1955803857
H 0.9354560451 -1.7184238389 0.1124372071
H -0.4521171425 -1.5448685656 1.20812628
H -0.6592298561 -2.3332068639 -0.371615073
