11

Cl 0.618399438 1.1293520998 0.6522081448
Cl -0.8645623266 0.6587904309 2.9875236726
C -0.417930725 -0.2203327541 -0.4150491337
C -0.0881777045 0.0083600023 -1.8066573699
C -0.0629258828 -1.5697357559 0.1689208926
H -1.4160608048 0.1198739042 -0.1418459107
H -0.5650128545 0.8048460148 -2.3664429348
H 0.7348987743 -0.5267792745 -2.2691609908
H 0.9853869209 -1.8178104585 -0.0162847431
H -0.254516372 -1.5900919357 1.2428349779
H -0.689199463 -2.3310722733 -0.311247605
