11

Cl 0.7616390991 1.0072642993 0.7242092039
Cl -1.1677295208 1.05429922 2.7312477026
C -0.3737000888 -0.2688583627 -0.3529661899
C -0.1349864086 0.0475223437 -1.7419884967
C -0.0045763767 -1.6537653535 0.1284124939
H -1.334394129 0.0777835701 0.0237686778
H -0.6261548864 0.894096423 -2.2080465753
H 0.638176919 -0.4706806607 -2.300165848
H 1.0218290806 -1.9122110902 -0.144548084
H -0.1197881568 -1.7338878243 1.2103434383
H -0.6800185316 -2.3761625646 -0.3454653226
