11

Cl -1.2649157459 1.3741165212 0.2449636479
Cl 1.8472321946 0.1098638588 0.4515854148
C -0.588174883 -0.1783487874 -0.46071613
C 0.9348816207 -0.0165582455 -0.7323208162
C -0.9445067128 -1.3468716087 0.4452815475
H -1.0815792813 -0.2752522753 -1.4303155059
H 1.1641521263 -0.894808499 -1.3636775015
H 1.0104135948 0.831173303 -1.430720096
H -0.5050551273 -1.226456994 1.4382124709
H -2.0274505727 -1.4336145312 0.5548083418
H -0.5646972133 -2.2778427417 0.0076966268
