11

Cl 0.793707832 0.8079294447 0.8882831243
Cl -1.3339294109 1.8018638254 2.3865725765
C -0.3638841942 -0.3670732161 -0.2626122591
C -0.1867640662 0.1002333178 -1.6182327072
C 0.0599299146 -1.7872652748 0.0444239229
H -1.3193374739 -0.087835477 0.1791292981
H -0.7151949952 0.9775217256 -1.9729793321
H 0.5816568756 -0.3314123347 -2.2516870883
H 1.079644991 -1.9788256808 -0.2997942981
H -0.0004458402 -1.9970803659 1.1134796561
H -0.6150866326 -2.4726579642 -0.481780893
