11

Cl 0.2924686183 1.1951876427 0.6361709569
Cl -0.3649761572 0.6092428961 3.4891971985
C -0.493962512 -0.2131751372 -0.4992479655
C -0.0102645952 -0.0170105754 -1.8626236285
C -0.1436742727 -1.5384546957 0.1496021975
H -1.5465129024 0.0465199611 -0.3877302435
H -0.4587762195 0.7276726993 -2.5096993688
H 0.8934627482 -0.5164004254 -2.1954356188
H 0.9314032329 -1.7291675985 0.0952421665
H -0.4534255652 -1.5593451046 1.1957228428
H -0.6654423752 -2.3396686624 -0.3863995371
