11

Cl 0.7698385345 0.6068999138 1.120537487
Cl -1.2940284648 2.3552947537 1.6473413054
C -0.38020356 -0.4721965828 -0.1448007938
C -0.263736003 0.1822498466 -1.4228990892
C 0.1165126422 -1.8966053875 -0.0318909057
H -1.3268988895 -0.2869580493 0.3597891705
H -0.8269640962 1.0856152567 -1.6257257446
H 0.4984792663 -0.1253755424 -2.1317653507
H 1.1322895968 -1.9969423013 -0.4236450611
H 0.0988272544 -2.2454468828 1.0020871436
H -0.5438192808 -2.5411360245 -0.6242241614
