11

Cl -1.0647978183 1.2949828801 0.6557605491
Cl 1.6458507346 0.9972554684 -0.2133203576
C -0.7811094812 -0.1555859942 -0.3833390032
C 1.3787390133 0.2514340022 -0.6404055904
C -1.0848902386 -1.4549727163 0.3090194818
H -1.3370810874 0.0068538466 -1.3091447884
H 1.4979986595 -0.8648928961 -0.3801964129
H 1.1748406854 0.0357397419 -1.7513737557
H -0.482060211 -1.5799902913 1.2171073021
H -2.1391815742 -1.5891193603 0.5941863781
H -0.828008682 -2.276304681 -0.3734958028
