11

Cl -1.27799352 1.3790867979 0.2080421247
Cl 2.0219555334 0.1164683818 0.7103396652
C -0.6339588618 -0.1793780158 -0.4883671998
C 0.8166340762 -0.0334095317 -0.8786022083
C -0.9443709392 -1.3465513878 0.4375300985
H -1.1770247675 -0.2951474952 -1.4346813966
H 1.1940903091 -0.9254910671 -1.3771371329
H 1.036116545 0.8733296627 -1.435238466
H -0.4463293321 -1.2167019577 1.3996605882
H -2.0208359153 -1.4286809008 0.5998843568
H -0.5879841279 -2.2781244864 -0.0166314298
