11

Cl 0.7693913679 0.6467451099 1.0667481405
Cl -1.3124484926 2.3002192996 1.85764864
C -0.3780287322 -0.4556316747 -0.1747476438
C -0.2468666383 0.1591292616 -1.4725573771
C 0.1086003685 -1.8795579237 -0.0179029026
H -1.3311024589 -0.2559841239 0.3124203265
H -0.804688602 1.0571542533 -1.7114541639
H 0.5184004529 -0.1756513345 -2.1656487742
H 1.127763586 -1.9955174187 -0.3962101598
H 0.0786984309 -2.1987921839 1.0252949904
H -0.5494212821 -2.5367142651 -0.5987870759
