11

Cl -1.3922130682 1.3899084978 0.0530707962
Cl 2.3466386423 -0.0995037878 1.2356670976
C -0.7262733916 -0.1726341918 -0.5749940774
C 0.6337703765 -0.0209062388 -1.1031156476
C -0.9055864069 -1.3127694426 0.4322428052
H -1.3341839589 -0.3965908861 -1.473522645
H 1.1426237717 -0.9044971889 -1.4756099463
H 1.0344318681 0.9492733217 -1.3713128819
H -0.2947857748 -1.1069058567 1.3128827024
H -1.9575485419 -1.4076720992 0.7055887508
H -0.5665745162 -2.2523041277 -0.016095954
