11

Cl 0.698941674 1.0719540603 0.6831019064
Cl -1.0239078781 0.8436999427 2.8646485125
C -0.3941446031 -0.2421676884 -0.3841599481
C -0.1124658783 0.0268081752 -1.7766837752
C -0.0335808875 -1.6097949774 0.1511987299
H -1.3731077522 0.1070511163 -0.0594628542
H -0.5970875175 0.8493262167 -2.2902892589
H 0.6839983571 -0.5031624216 -2.2891044211
H 1.0044602075 -1.8652279396 -0.0769391286
H -0.1882330498 -1.6619020276 1.2300716643
H -0.6845736723 -2.3511844566 -0.327582427
