11
generated by pescan.py
F -0.001030307 1.5372687795 0.1980724103
C 0.0001442957 -0.1531519601 -0.4203736837
C -1.2881331918 -0.6851619544 0.116069315
C 1.289184132 -0.6833475221 0.1160375216
H -2.34035e-05 0.0581778209 -1.4882637477
H -2.1259453311 -0.0694306221 -0.2147097349
H -1.4445423822 -1.7086662986 -0.2509355886
H -1.2699497538 -0.7098598781 1.2079762111
H 2.12612764 -0.066482294 -0.2148279125
H 1.446981394 -1.7066625693 -0.2508940423
H 1.2710889079 -0.7079825017 1.2079482517
