11
generated by pescan.py
F -0.0008308899 1.2817353434 0.0848319811
C -3.3287e-06 0.0551891655 -0.3459625937
C -1.2709352877 -0.6568887248 0.1243636717
C 1.2719406038 -0.6551090322 0.1243190724
H -3.23812e-05 0.0642121502 -1.4512598221
H -2.1581279087 -0.1108054334 -0.2107133819
H -1.3216479567 -1.6750622502 -0.2726870442
H -1.2938120036 -0.7097031798 1.2183825714
H 2.1583515071 -0.1077670467 -0.2107741712
H 1.3240846848 -1.6732084456 -0.2727377282
H 1.2949129608 -0.7078925466 1.2183374446
