11
generated by pescan.py
F -0.0008128526 1.2344100421 0.0593156988
C -3.22821e-05 0.0998362835 -0.3315062489
C -1.2690623036 -0.6511785372 0.1273730613
C 1.2700601824 -0.6494111564 0.1273257306
H -2.87906e-05 0.0584263555 -1.4456688166
H -2.1649891232 -0.1183449246 -0.2092224346
H -1.2998124645 -1.6661655912 -0.2778077323
H -1.3001627662 -0.7125064481 1.2217440054
H 2.1652242414 -0.1153038443 -0.2092803614
H 1.3022483187 -1.6643534063 -0.2778676988
H 1.3012678402 -0.710708773 1.2216947964
