11
generated by pescan.py
F -0.0006816137 1.062055032 -0.0579909607
C -0.0001672222 0.2987229612 -0.2974151851
C -1.3150239416 -0.635393869 0.1568107479
C 1.3159994829 -0.6335854449 0.1567182096
H -4.0562e-05 0.0626702873 -1.4951749836
H -2.2466161634 -0.1584508595 -0.1835007921
H -1.2481254753 -1.6262194665 -0.2953583843
H -1.3719401269 -0.743569303 1.2506323083
H 2.2469208836 -0.1551805105 -0.1833866954
H 1.2505937194 -1.6243733499 -0.2957456928
H 1.3729810192 -0.7419754772 1.2505114282
