11
generated by pescan.py
F -0.0009212861 1.379918616 0.1289015777
C 6.16487e-05 -0.0323641138 -0.3765247392
C -1.2782871617 -0.667860606 0.1210437963
C 1.2793164409 -0.6660655295 0.1210051496
H -2.50786e-05 0.0651628872 -1.4671030834
H -2.1459159097 -0.0923961843 -0.2107517924
H -1.3731150443 -1.6892012287 -0.264002769
H -1.28324272 -0.7088200021 1.2142188374
H 2.1461290985 -0.0893899206 -0.2108211129
H 1.3755419684 -1.687268869 -0.2640461781
H 1.2843600438 -0.7070150494 1.214180314
