11
generated by pescan.py
F -0.0010688669 1.5910852909 0.238299327
C 0.0001652358 -0.1859729371 -0.434056177
C -1.2898928845 -0.6923844533 0.1113748605
C 1.2909508527 -0.6905631019 0.1113422955
H -3.33859e-05 0.0662958639 -1.4920967355
H -2.1218669455 -0.0736375533 -0.2273730863
H -1.4560077323 -1.7206720387 -0.2401537047
H -1.2688639592 -0.7010011776 1.2032006534
H 2.1220412528 -0.0706578557 -0.2274579301
H 1.4584983458 -1.7186292918 -0.2401499507
H 1.2699780872 -0.6991627454 1.203170448
