11
generated by pescan.py
F -0.0007217497 1.1029268312 -0.0282131339
C -0.0001309951 0.2452491763 -0.3009563291
C -1.2882529169 -0.6379139866 0.1447435987
C 1.2892335561 -0.636131798 0.1446683537
H -2.52288e-05 0.0489096742 -1.4622256059
H -2.2106931204 -0.1437220525 -0.1917891546
H -1.2528191696 -1.6368225814 -0.293523968
H -1.3382740636 -0.7319439854 1.2395107756
H 2.210975699 -0.1405480915 -0.1917338448
H 1.2552657954 -1.6350056424 -0.2937982337
H 1.3393421936 -0.7302975441 1.2394175419
