11
generated by pescan.py
Br 1.7858399691 -0.0004442772 -0.0628449462
C -0.1642177877 2.92818e-05 0.38131037
C -0.8011865601 -1.2744619026 -0.1520292555
C -0.8005344319 1.2748393865 -0.152051835
H -0.1596137739 3.95716e-05 1.4725305764
H -0.3104388279 -2.1667999134 0.2429475199
H -1.8561856387 -1.3000963717 0.1484318868
H -0.7565469401 -1.3094365077 -1.2444434721
H -0.3092955444 2.166930581 0.2428738103
H -1.8555095065 1.3010515411 0.1484436075
H -0.7559099579 1.3097496105 -1.244469262
