11
generated by pescan.py
Br 2.1387274182 0.0035696822 1.0894502078
C -0.2760478074 -9.12754e-05 0.1256823139
C -0.8917931978 -1.3102899913 -0.2255702177
C -0.8796954932 1.3085201321 -0.2515461458
H 0.2582908896 0.0070780531 1.1180205407
H -0.2238914694 -2.1462142492 0.0026432433
H -1.8417928421 -1.487567155 0.3067906815
H -1.1236808529 -1.3401732602 -1.2984867935
H -0.1991546545 2.1414148651 -0.0511039822
H -1.8212047628 1.5104704157 0.2869813359
H -1.1233592277 1.3146827829 -1.322159184
