11
generated by pescan.py
Br 2.0367201476 -0.000522927 -0.106667351
C -0.3064225107 7.15061e-05 0.4126412681
C -0.8265866988 -1.2870608085 -0.150428448
C -0.8259312959 1.287455417 -0.1504524394
H -0.156618485 4.60146e-05 1.4894866258
H -0.2986835049 -2.1522253695 0.2528709326
H -1.8879493054 -1.3717751822 0.131372023
H -0.7669774589 -1.3050081491 -1.2411451867
H -0.297541256 2.1523484803 0.2527887639
H -1.8872323624 1.3727404094 0.1314061048
H -0.7663772699 1.3053316089 -1.241173293
