11
generated by pescan.py
Br 2.3910306981 -0.0005523001 -0.1113386567
C -0.4557183985 9.85789e-05 0.4418503466
C -0.8640693068 -1.2932412571 -0.1503808643
C -0.8633928939 1.293640447 -0.1504073384
H -0.1706061124 3.55505e-05 1.4897821418
H -0.2804500837 -2.125637736 0.2438392618
H -1.9206755003 -1.4613531151 0.127913028
H -0.8105832644 -1.2815888842 -1.2411043894
H -0.2793143421 2.1257271559 0.2437837165
H -1.9199037824 1.4623393097 0.1278929994
H -0.8099180137 1.2819292505 -1.2411302452
