11
generated by pescan.py
Br 2.2643237058 -0.0043116167 -0.1393419212
C -0.4620081693 0.0008262268 0.4986936873
C -0.8517250192 -1.2952875162 -0.1364292357
C -0.8537938834 1.2963994101 -0.1362292175
H -0.275665837 0.0006736844 1.5701124114
H -0.3529262499 -2.1501784302 0.3344903402
H -1.9375180282 -1.4855982109 -0.0655706509
H -0.6084185249 -1.3090488296 -1.2074925314
H -0.3535794176 2.1517248515 0.3324539629
H -1.9393519072 1.4868108298 -0.0622457958
H -0.6129386693 1.3093886009 -1.2077370491
