11
generated by pescan.py
Br 1.2576048203 -0.0003176325 0.1295770281
C 0.3919141238 1.09386e-05 0.3757079236
C -0.8097619727 -1.344986385 -0.1667072957
C -0.8089104053 1.3453355964 -0.1667008662
H -0.2067534283 0.0001313068 1.3233655243
H -0.308480159 -2.2512929981 0.1985849598
H -1.8323688394 -1.2710974696 0.2056264581
H -0.764352007 -1.294753594 -1.2615135025
H -0.3072984975 2.251515105 0.1984545059
H -1.8314688953 1.2717911844 0.2058180802
H -0.7637247395 1.2950639482 -1.2615128156
