11
generated by pescan.py
Br 3.2624499716 0.0006694001 -0.1030995934
C -0.591591305 -9.09104e-05 0.4938662802
C -0.9630784242 -1.3000491615 -0.137357155
C -0.9617316852 1.3002249909 -0.1374089431
H -0.2938745432 -0.0002202637 1.5396917955
H -0.4128729205 -2.1394504765 0.3007872926
H -2.0378205875 -1.5291629981 -0.0200879924
H -0.7697704968 -1.2941667004 -1.2181101115
H -0.4103934585 2.1390254808 0.300464738
H -2.0361608008 1.5306446947 -0.0198288463
H -0.7687577499 1.2939739442 -1.2182164646
