11
generated by pescan.py
Br 2.0905519572 0.0015387234 0.9897608396
C -0.260927522 0.0001795176 0.1409125112
C -0.8823813839 -1.3066004601 -0.2176841531
C -0.870389906 1.3051378673 -0.2440142862
H 0.2208910832 0.007976165 1.1611434871
H -0.2259635871 -2.1475646725 0.0254480897
H -1.8451182687 -1.4748492932 0.294326384
H -1.0921909765 -1.3363171387 -1.2950993914
H -0.2022986826 2.1439267549 -0.0263830557
H -1.8264597898 1.496541166 0.2722288809
H -1.0893149238 1.3114323705 -1.319937306
