11
generated by pescan.py
Br 3.0538958449 -0.0511539431 -0.1656998165
C -0.5836995624 0.0077666974 0.5084137303
C -0.9259396668 -1.2953564132 -0.133273154
C -0.9489056667 1.3053246425 -0.1317223649
H -0.3260530024 0.0092886376 1.5650584252
H -0.3819202744 -2.130209118 0.3211505869
H -2.0016593981 -1.5334167135 -0.0474127062
H -0.7008059041 -1.2875354622 -1.2078371938
H -0.4148983422 2.1472771892 0.3213868918
H -2.0276771624 1.5274446571 -0.0425905647
H -0.7259388652 1.3019678259 -1.2067728341
