11
generated by pescan.py
Br 1.9719551846 -0.000522893 -0.1023968439
C -0.2712369621 6.53658e-05 0.4056267295
C -0.8200969829 -1.2843957966 -0.1502515478
C -0.8194448466 1.2847909347 -0.1502757019
H -0.1542120006 4.86461e-05 1.4871962838
H -0.3048752286 -2.1571967493 0.2538522046
H -1.8813419441 -1.3511685763 0.1326911844
H -0.7602827657 -1.3083605954 -1.2411054232
H -0.3037410378 2.1573320625 0.2537720159
H -1.880638893 1.3521252981 0.1327250957
H -0.759683523 1.3086853033 -1.241133997
