11
generated by pescan.py
Br 1.4361661549 -0.0003950348 0.0213382259
C 0.0704296414 -2.4602e-05 0.3291752541
C -0.771640743 -1.2500604392 -0.1552793384
C -0.7710000897 1.2504314135 -0.1553028746
H -0.1848034937 5.52772e-05 1.4130389728
H -0.3242107896 -2.1698167084 0.2364924371
H -1.8110380058 -1.1920005396 0.1777722606
H -0.7473150455 -1.3025565696 -1.2503597656
H -0.3230888964 2.1699702395 0.2364296286
H -1.8104164057 1.1929164966 0.1777806624
H -0.746682327 1.3028804666 -1.250385463
