11
generated by pescan.py
Br 4.8038222497 -0.0011605501 0.6400607964
C -0.5832211629 0.0001770238 0.2662100148
C -1.1620057444 -1.2985541429 -0.1863489995
C -1.1615093576 1.2990891099 -0.1864650522
H 0.1001605085 8.91493e-05 1.1115611214
H -0.5055267324 -2.1436266835 0.0442074495
H -2.1350971029 -1.509573478 0.2924367602
H -1.3507502331 -1.2998738812 -1.2685883299
H -0.5046279681 2.1439088632 0.0438722788
H -2.1344389143 1.5105969808 0.2924326885
H -1.3504045425 1.3003266087 -1.2686767279
