11
generated by pescan.py
Br 2.5609982012 0.0066373694 -0.2510459096
C -0.542607864 -0.0007371397 0.5284258376
C -0.8829979158 -1.2990151772 -0.1249753203
C -0.8798792143 1.2979765784 -0.1257376009
H -0.3456954986 -0.0006041321 1.5978167618
H -0.3749826973 -2.1438328125 0.352905892
H -1.965509438 -1.5167036607 -0.0840313103
H -0.6119257793 -1.2974806139 -1.1890569547
H -0.3735475481 2.1424423709 0.3545290626
H -1.9624806935 1.5160224305 -0.0891915474
H -0.6049745523 1.296694787 -1.1889359108
