11
generated by pescan.py
Br 1.8482698083 -0.0004632895 -0.0725257604
C -0.2002631197 4.00029e-05 0.3895478442
C -0.8071763216 -1.2780614041 -0.1520340266
C -0.8065223255 1.2784432209 -0.1520570397
H -0.1587427463 4.15197e-05 1.4786031701
H -0.3073821289 -2.1644384003 0.2438274449
H -1.8637897987 -1.3179375012 0.1448443441
H -0.7596404393 -1.308025229 -1.2440464304
H -0.3062373673 2.1645679798 0.243750153
H -1.8631015202 1.3188944652 0.1448642641
H -0.7590150407 1.3083406356 -1.2440729634
