11
generated by pescan.py
Br 4.5001752658 -0.000985079 0.4099330135
C -0.5994302609 0.0001597069 0.3465011154
C -1.1186547691 -1.2987799599 -0.1728353612
C -1.1180892841 1.2992751696 -0.1729589153
H -0.0268405408 8.66973e-05 1.2707344998
H -0.4935840827 -2.1433706925 0.1344668846
H -2.1419412978 -1.5116235144 0.1853236768
H -1.1759389554 -1.2997075197 -1.2698940181
H -0.492573767 2.1436033089 0.1341613242
H -2.1412350026 1.5126605309 0.1852808094
H -1.1754873055 1.3000803519 -1.270011029
