11
generated by pescan.py
Br 2.1695724152 -0.0005536772 -0.1180786853
C -0.3725073709 8.61312e-05 0.4276572551
C -0.8404557746 -1.2906009945 -0.1497457549
C -0.8397989613 1.2910005201 -0.1497696031
H -0.1631465059 4.51005e-05 1.4937250632
H -0.2888618028 -2.1413967811 0.2513105659
H -1.9015457047 -1.4109423761 0.1273838262
H -0.7794624742 -1.2954620096 -1.2401986362
H -0.2877302541 2.1415123472 0.2512338484
H -1.9008103083 1.4119184557 0.1274074272
H -0.7788542585 1.2957922838 -1.2402253065
