11
generated by pescan.py
Br 2.037648697 0.0015556172 0.9044669425
C -0.2424600156 0.0001329332 0.1553987692
C -0.8717616141 -1.3024636078 -0.2117310383
C -0.8594499076 1.3009346613 -0.2381228644
H 0.1752057568 0.0083958332 1.2056623345
H -0.2233335139 -2.148881538 0.0350960407
H -1.8414769774 -1.466461541 0.2883587478
H -1.0697777974 -1.3262716482 -1.2914106001
H -0.1996880401 2.1453080701 -0.0154374937
H -1.8234440355 1.4874237421 0.2650064904
H -1.0650655522 1.3017294779 -1.3165843285
