11
generated by pescan.py
Br 1.9844307762 -0.0001301214 0.8227398194
C -0.2203162726 0.0003137274 0.167689395
C -0.8603907046 -1.2979266481 -0.2059570661
C -0.8482466531 1.2965838213 -0.2325730881
H 0.1263664534 0.0093895968 1.2457094719
H -0.2208804704 -2.1505347126 0.0444486979
H -1.8360464278 -1.4561855162 0.2844785898
H -1.0487903204 -1.3171289813 -1.2873199529
H -0.1982356628 2.1475598423 -0.0046187114
H -1.8194248155 1.4762611722 0.2592049756
H -1.0420699025 1.2931988195 -1.3130991311
