11
generated by pescan.py
Br 2.3198616499 -0.0027628771 -0.2208535147
C -0.4849434127 0.0005273989 0.5160719596
C -0.8578958645 -1.2954709612 -0.1276138385
C -0.8588364286 1.296185565 -0.1276150434
H -0.2904909078 0.0001523628 1.5860211512
H -0.3779254924 -2.1502664485 0.3615645414
H -1.9463519338 -1.480680251 -0.0938911202
H -0.5794170543 -1.3122840645 -1.190249966
H -0.3790270046 2.1519583812 0.3603532767
H -1.9473484552 1.4813541383 -0.0926172915
H -0.581229096 1.3126857561 -1.1904661546
