11
generated by pescan.py
Br 1.3362735325 -0.0003541634 0.0508417301
C 0.1659644465 -5.15462e-05 0.3161276566
C -0.7705047733 -1.2523146142 -0.1582194522
C -0.7698662716 1.2526842456 -0.1582421757
H -0.2004005384 5.41328e-05 1.3916147983
H -0.3232500278 -2.1727477368 0.2351462789
H -1.8026170629 -1.1688930965 0.1888624696
H -0.7478535875 -1.3002583176 -1.2546804944
H -0.3221179133 2.1728954314 0.2350810582
H -1.8020087802 1.1698085452 0.1888731558
H -0.7472190241 1.3005771197 -1.2547050252
