11
generated by pescan.py
Br 1.6048174016 -0.0004203619 -0.0196409582
C -0.053408857 5.2432e-06 0.3549061123
C -0.7839102013 -1.2619278799 -0.1535442535
C -0.7832681956 1.2622998874 -0.1535658966
H -0.1701324801 4.493e-05 1.4464968133
H -0.3158539149 -2.1698540716 0.2375360136
H -1.8319725328 -1.2486733297 0.1628178498
H -0.7522252232 -1.3089659724 -1.2472928546
H -0.3147122349 2.1699928879 0.2374577046
H -1.8313236639 1.2496206613 0.1628469902
H -0.7516100978 1.3092780058 -1.247317521
