10
PE-thioketone
S -1.1402391626 -0.0001532829 -0.0015115128
C 0.1097605877 -0.0000244801 -0.0007286735
C 1.0503426556 1.2512833640 0.0002269151
C 1.0506058692 -1.2511346860 0.0002361205
H 1.6979907145 1.2424346957 0.8839021836
H 1.7038662707 1.2402351743 -0.8790505802
H 0.4622838719 2.1725545632 -0.0027292641
H 0.4627373484 -2.1725310096 -0.0013768481
H 1.6993407191 -1.2414976776 0.8831011096
H 1.7030411254 -1.2405966609 -0.8798594501
10
PE-thioketone
S -1.1686816313 -0.0001569939 -0.0018597745
C 0.1313179218 -0.0000218335 -0.0007886128
C 1.0518893993 1.2524669137 0.0002723767
C 1.0521528757 -1.2523175863 0.0002899725
H 1.7010051615 1.2485480553 0.8833104336
H 1.7066191998 1.2466296778 -0.8785707162
H 0.4584114083 2.1694529448 -0.0024819705
H 0.4588641354 -2.1694294777 -0.0011639773
H 1.7023213371 -1.2476339143 0.8825453094
H 1.7058301924 -1.2469677858 -0.8793430409
10
PE-thioketone
S -1.1976523522 -0.0001607177 -0.0020945852
C 0.1523475559 -0.0000193433 -0.0008147328
C 1.0538482795 1.2546192556 0.0003014481
C 1.0541120854 -1.2544691797 0.0003255054
H 1.7039016191 1.2550425120 0.8829508749
H 1.7093478435 1.2533063699 -0.8782830371
H 0.4547968752 2.1674596520 -0.0023255974
H 0.4552490739 -2.1674364599 -0.0010330403
H 1.7051944313 -1.2541461069 0.8822119332
H 1.7085845884 -1.2536259820 -0.8790287688
10
PE-thioketone
S -1.2279554469 -0.0001636788 -0.0023706372
C 0.1720438679 -0.0000171378 -0.0008473571
C 1.0557121621 1.2567752664 0.0003332581
C 1.0559761720 -1.2566246849 0.0003665245
H 1.7076389483 1.2623178762 0.8821207748
H 1.7128786245 1.2608026175 -0.8775420728
H 0.4509666976 2.1652306951 -0.0021374394
H 0.4514189562 -2.1652084984 -0.0008794786
H 1.7088981936 -1.2614448466 0.8814176713
H 1.7121518247 -1.2610976086 -0.8782512437
10
PE-thioketone
S -1.2585598060 -0.0001661210 -0.0026019562
C 0.1914391478 -0.0000151415 -0.0008691410
C 1.0581521645 1.2593626263 0.0003587807
C 1.0584164981 -1.2592116175 0.0004009909
H 1.7112215904 1.2695599358 0.8816671574
H 1.7162887668 1.2682316525 -0.8771670419
H 0.4471366256 2.1630870374 -0.0019816396
H 0.4475892137 -2.1630662438 -0.0007594500
H 1.7124462739 -1.2687096551 0.8810009369
H 1.7155995253 -1.2685024732 -0.8778386372
10
PE-thioketone
S -1.2896573543 -0.0001696465 -0.0027651732
C 0.2103414322 -0.0000130077 -0.0008652215
C 1.0610917990 1.2620795348 0.0003774705
C 1.0613566065 -1.2619277175 0.0004260822
H 1.7147283839 1.2766724278 0.8815345193
H 1.7196841050 1.2754538218 -0.8770833292
H 0.4433910764 2.1607447106 -0.0018888639
H 0.4438431736 -2.1607245369 -0.0006932961
H 1.7159291084 -1.2758397061 0.8808953587
H 1.7190216693 -1.2757058805 -0.8777275468
10
PE-thioketone
S -1.3212394688 -0.0001735500 -0.0029316279
C 0.2287587388 -0.0000108764 -0.0008523698
C 1.0640019346 1.2650798738 0.0003966590
C 1.0642673134 -1.2649271404 0.0004523908
H 1.7185266858 1.2843943833 0.8812150230
H 1.7233659037 1.2832740788 -0.8768126867
H 0.4395817238 2.1586490707 -0.0018006072
H 0.4400331243 -2.1586292012 -0.0006331586
H 1.7197020012 -1.2835804556 0.8806044121
H 1.7227320431 -1.2835061831 -0.8774280347
10
PE-thioketone
S -1.3533167458 -0.0001760623 -0.0030850731
C 0.2466813868 -0.0000091907 -0.0008448936
C 1.0671050952 1.2681760532 0.0004127496
C 1.0673711662 -1.2680228651 0.0004758707
H 1.7224055446 1.2921355705 0.8809504859
H 1.7271381103 1.2911190771 -0.8765953391
H 0.4359026240 2.1565701407 -0.0017156430
H 0.4363541022 -2.1565514787 -0.0005779686
H 1.7235538014 -1.2913406807 0.8803699609
H 1.7265349151 -1.2913305640 -0.8771801498
10
PE-thioketone
S -1.3858728951 -0.0001773124 -0.0032066712
C 0.2641251353 -0.0000078782 -0.0008422326
C 1.0703716666 1.2713125506 0.0004228037
C 1.0706385809 -1.2711592883 0.0004935029
H 1.7263354621 1.2998393721 0.8807408940
H 1.7309857542 1.2989222053 -0.8764261101
H 0.4324118320 2.1545130680 -0.0016457837
H 0.4328640791 -2.1544963640 -0.0005394327
H 1.7274550868 -1.2990637253 0.8801918901
H 1.7304152982 -1.2991126277 -0.8769788604
10
PE-thioketone
S -1.4189419841 -0.0001798845 -0.0033154221
C 0.2810559048 -0.0000063684 -0.0008259074
C 1.0737736434 1.2744295784 0.0004322382
C 1.0740413531 -1.2742758150 0.0005106072
H 1.7303125163 1.3074193901 0.8805774753
H 1.7348880020 1.3065714896 -0.8762991024
H 0.4291974747 2.1525044592 -0.0015930908
H 0.4296497236 -2.1524887596 -0.0005193184
H 1.7314017242 -1.3066632109 0.8800612281
H 1.7343516420 -1.3067408789 -0.8768187076
10
PE-thioketone
S -1.4525522815 -0.0001839623 -0.0034387664
C 0.2974454103 -0.0000045860 -0.0007965232
C 1.0772873611 1.2774747096 0.0004454963
C 1.0775557422 -1.2773200024 0.0005315173
H 1.7343381754 1.3147818378 0.8804526232
H 1.7388252619 1.3139857934 -0.8762138942
H 0.4263298021 2.1505636224 -0.0015405223
H 0.4267812536 -2.1505479292 -0.0005001791
H 1.7353954507 -1.3140450728 0.8799699433
H 1.7383238242 -1.3141344105 -0.8766996950
10
PE-thioketone
S -1.4867216106 -0.0001872389 -0.0035676880
C 0.3132758981 -0.0000030270 -0.0007737230
C 1.0809035528 1.2804109091 0.0004589443
C 1.0811726315 -1.2802555047 0.0005524288
H 1.7384034268 1.3218571220 0.8803598390
H 1.7427988092 1.3211247809 -0.8761623199
H 0.4238424618 2.1486986000 -0.0014803308
H 0.4242937019 -2.1486834695 -0.0004735378
H 1.7394283929 -1.3211391424 0.8799106896
H 1.7423327357 -1.3212530293 -0.8766143023
10
PE-thioketone
S -1.5214427463 -0.0001894455 -0.0036815068
C 0.3285546319 -0.0000017082 -0.0007612711
C 1.0846122807 1.2832129168 0.0004688771
C 1.0848821199 -1.2830571028 0.0005695734
H 1.7424976588 1.3286188478 0.8803009138
H 1.7468155616 1.3279583389 -0.8761400995
H 0.4217416622 2.1468990998 -0.0014230897
H 0.4221934276 -2.1468852622 -0.0004495449
H 1.7434905289 -1.3279188784 0.8798848231
H 1.7463848747 -1.3280668063 -0.8765586754
10
PE-thioketone
S -1.5567078608 -0.0001919864 -0.0037809052
C 0.3432894043 -0.0000003440 -0.0007489259
C 1.0884093876 1.2858636217 0.0004766543
C 1.0886798742 -1.2857072651 0.0005841883
H 1.7466227426 1.3350620348 0.8802734693
H 1.7508764648 1.3344636435 -0.8761437441
H 0.4200217226 2.1451534006 -0.0013756777
H 0.4204739474 -2.1451406794 -0.0004344506
H 1.7475841472 -1.3343791556 0.8798894043
H 1.7504801701 -1.3345532701 -0.8765300127
10
PE-thioketone
S -1.5925122361 -0.0001956742 -0.0038823231
C 0.3574848966 0.0000012539 -0.0007294530
C 1.0922919559 1.2883506044 0.0004856937
C 1.0925628691 -1.2881933535 0.0005996514
H 1.7507871091 1.3411784275 0.8802729849
H 1.7549762230 1.3406278732 -0.8761727553
H 0.4186782097 2.1434533940 -0.0013326740
H 0.4191303325 -2.1434411279 -0.0004224282
H 1.7517179723 -1.3405116299 0.8799195357
H 1.7546126679 -1.3406997676 -0.8765282321
10
PE-thioketone
S -1.6288512158 -0.0002008562 -0.0040071455
C 0.3711457319 0.0000031207 -0.0006991998
C 1.0962562179 1.2906648740 0.0004997313
C 1.0965272452 -1.2905062953 0.0006196141
H 1.7550007453 1.3469581271 0.8802929199
H 1.7591072903 1.3464457468 -0.8762265087
H 0.4177080722 2.1417945291 -0.0012827611
H 0.4181593077 -2.1417818737 -0.0004016892
H 1.7559024268 -1.3463061852 0.8799682066
H 1.7587741783 -1.3465011873 -0.8765531676
10
PE-thioketone
S -1.6657282198 -0.0002055981 -0.0041512798
C 0.3842685328 0.0000048547 -0.0006711246
C 1.1002993735 1.2927989348 0.0005167747
C 1.1005705226 -1.2926391738 0.0006421827
H 1.7592638066 1.3523809120 0.8803288057
H 1.7632742597 1.3519165584 -0.8762998835
H 0.4171115432 2.1401769753 -0.0012203079
H 0.4175622114 -2.1401642028 -0.0003666438
H 1.7601381366 -1.3517427079 0.8800309881
H 1.7629698336 -1.3519565528 -0.8765995116
10
PE-thioketone
S -1.7031408827 -0.0002092907 -0.0043044989
C 0.3968556936 0.0000062863 -0.0006509270
C 1.1044159947 1.2947544190 0.0005347231
C 1.1046874398 -1.2945937738 0.0006654428
H 1.7635825128 1.3574568996 0.8803703837
H 1.7674904906 1.3570545618 -0.8763808691
H 0.4168716534 2.1385949122 -0.0011479584
H 0.4173223835 -2.1385825813 -0.0003213637
H 1.7644299464 -1.3568318006 0.8800989678
H 1.7672147680 -1.3570796325 -0.8766539003
10
PE-thioketone
S -1.7412326219 -0.0002126707 -0.0044164122
C 0.4087635458 0.0000075296 -0.0006332389
C 1.1086415256 1.2964656520 0.0005470917
C 1.1089133166 -1.2963042289 0.0006809337
H 1.7678510944 1.3619350674 0.8805168983
H 1.7717104408 1.3615691054 -0.8765389944
H 0.4172482920 2.1372016786 -0.0011092142
H 0.4176992332 -2.1371898395 -0.0002950182
H 1.7686880870 -1.3613170277 0.8802576618
H 1.7714470865 -1.3615852661 -0.8767997077
10
PE-thioketone
S -1.7797418838 -0.0002163409 -0.0045521515
C 0.4202543606 0.0000087393 -0.0006120354
C 1.1128936859 1.2980160175 0.0005635312
C 1.1131658224 -1.2978537429 0.0007009119
H 1.7722665456 1.3662521876 0.8805695378
H 1.7760525327 1.3659276559 -0.8766126971
H 0.4177467462 2.1356901929 -0.0010563340
H 0.4181976870 -2.1356785486 -0.0002573020
H 1.7730898604 -1.3656422017 0.8803250852
H 1.7758046430 -1.3659339592 -0.8768585461
10
PE-thioketone
S -1.8189570711 -0.0002195805 -0.0046932738
C 0.4310389906 0.0000097398 -0.0005909766
C 1.1172124359 1.2993395379 0.0005811801
C 1.1174850198 -1.2991765738 0.0007217422
H 1.7767199310 1.3700172899 0.8806435303
H 1.7804312984 1.3697325768 -0.8767063128
H 0.4188097790 2.1343704067 -0.0010019564
H 0.4192609531 -2.1343590510 -0.0002154874
H 1.7775324597 -1.3694141159 0.8804113324
H 1.7801962036 -1.3697302299 -0.8769397780
10
PE-thioketone
S -1.8589095120 -0.0002224401 -0.0048376946
C 0.4410863527 0.0000105198 -0.0005698489
C 1.1215842407 1.3004060639 0.0005997346
C 1.1218573852 -1.3002425415 0.0007430817
H 1.7812342915 1.3731944150 0.8807161377
H 1.7848723913 1.3729462640 -0.8767956588
H 0.4204334662 2.1332205792 -0.0009480611
H 0.4208851024 -2.1332095361 -0.0001708478
H 1.7820397286 -1.3725966643 0.8804930473
H 1.7846465533 -1.3729366599 -0.8770198903
10
PE-thioketone
S -1.8996689187 -0.0002261306 -0.0049984971
C 0.4503266991 0.0000113197 -0.0005406461
C 1.1259990190 1.3011931631 0.0006219117
C 1.1262725493 -1.3010288785 0.0007676809
H 1.7858270512 1.3757148756 0.8807742138
H 1.7893811864 1.3754941477 -0.8768718060
H 0.4226757246 2.1322800333 -0.0008904994
H 0.4231273593 -2.1322686495 -0.0001188903
H 1.7866290364 -1.3751211211 0.8805568117
H 1.7891602934 -1.3754787597 -0.8770902793
10
PE-thioketone
S -1.9413447817 -0.0002297670 -0.0051745179
C 0.4586505532 0.0000119860 -0.0005098066
C 1.1304543889 1.3016818240 0.0006469020
C 1.1307282890 -1.3015168304 0.0007947636
H 1.7905206062 1.3774881231 0.8808173528
H 1.7939820480 1.3772946553 -0.8769336030
H 0.4256010248 2.1315953008 -0.0008265088
H 0.4260527567 -2.1315834682 -0.0000565923
H 1.7913233473 -1.3768968669 0.8806019878
H 1.7937617677 -1.3772749567 -0.8771499775
10
PE-thioketone
S -1.9839130594 -0.0002324317 -0.0053502081
C 0.4660820032 0.0000123326 -0.0004872528
C 1.1349441247 1.3018543154 0.0006715865
C 1.1352186245 -1.3016888919 0.0008212715
H 1.7952952331 1.3784900272 0.8808321919
H 1.7986701560 1.3783299052 -0.8769619617
H 0.4292153819 2.1311538648 -0.0007615326
H 0.4296678996 -2.1311419935 0.0000106947
H 1.7961033737 -1.3778998364 0.8806151289
H 1.7984462627 -1.3783072916 -0.8771799183
10
PE-thioketone
S -2.0274105318 -0.0002343836 -0.0055162477
C 0.4725842894 0.0000123931 -0.0004743336
C 1.1394692973 1.3017148973 0.0006945971
C 1.1397445928 -1.3015492266 0.0008458610
H 1.8001635651 1.3787067064 0.8808201830
H 1.8034672591 1.3785819935 -0.8769545268
H 0.4335202952 2.1309627863 -0.0007019206
H 0.4339741480 -2.1309511222 0.0000768705
H 1.8009819545 -1.3781161404 0.8805975079
H 1.8032351305 -1.3785579037 -0.8771779909
