11
Terminal carbon Chlorine
Cl    1.684600   -0.614600   -0.118700
 C   -0.782400    0.565700   -0.323000
 C    0.602400    0.736400    0.290400
 C   -1.504500   -0.687500    0.151300
 H   -0.707600    0.546900   -1.416800
 H   -1.389100    1.441100   -0.062900
 H    0.541600    0.794700    1.381500
 H    1.069000    1.655600   -0.076100
 H   -1.563200   -0.716600    1.244100
 H   -2.526400   -0.700600   -0.241500
 H   -1.008800   -1.599500   -0.193600
