12
bond 3 4
 C   -1.730200    1.249200    0.145700
 C   -1.070500   -0.000000   -0.441800
Se    0.838900    0.000000    0.000600
 H    0.783300    0.000000    1.559600
 C   -1.730200   -1.249200    0.145700
 H   -1.260200    2.139200   -0.272800
 H   -2.792000    1.249200   -0.100300
 H   -1.608100    1.249200    1.228900
 H   -1.192500   -0.000000   -1.524900
 H   -2.792000   -1.249200   -0.100300
 H   -1.260200   -2.139200   -0.272800
 H   -1.608100   -1.249200    1.228900
