11
generated by pescan.py
Br 1.7917304464 2.6096267418 -1.0486245069
Br 0.0509539171 1.6503317105 1.11224635
C -0.6373705826 -0.8826396838 -0.4212936117
C 0.5050527773 -0.7413146284 0.3294428356
C -1.9203033501 -1.447256873 0.0777646861
H -0.621434573 -0.5116455261 -1.4447063863
H 0.5670749106 -1.165133914 1.3271749188
H 1.4317701151 -0.4160419451 -0.1286766272
H -1.8514477113 -1.780412832 1.1159206268
H -2.7204787338 -0.700287386 -0.0005968651
H -2.2307502156 -2.2942306638 -0.5478444202
