11
generated by pescan.py
Br -0.7153089498 2.1107521351 0.2662549276
Br 2.3970937435 -0.178828565 -0.2798286885
C -0.5163198298 -0.2939150047 -0.3879459172
C 0.6631405174 -0.804214573 0.374597503
C -1.8499614883 -0.8713823939 -0.0272246991
H -0.3490259481 -0.07604268 -1.438837674
H 0.6024798987 -0.5533962732 1.4325846936
H 0.6881855241 -1.895931521 0.2723333408
H -2.0099174082 -0.8863874221 1.0532446016
H -2.6618380177 -0.3195848013 -0.5019791998
H -1.8837280419 -1.9100689008 -0.3923998879
