11
generated by pescan.py
Br 0.7679763764 2.3568699505 -1.4502828135
Br 0.3623127242 1.5202527992 1.3515585241
C -0.497194277 -0.8363937983 -0.3721315444
C 0.5759470088 -0.8417161242 0.4932651934
C -1.866695939 -1.2971148228 -0.023563182
H -0.3450628478 -0.40177181 -1.3587846459
H 0.4993619444 -1.3161289019 1.4670208156
H 1.5728841007 -0.6257558125 0.1276218265
H -1.9313635204 -1.6869668378 0.9951145265
H -2.5820013669 -0.4721897719 -0.1351161096
H -2.1913702033 -2.0780858704 -0.7238965908
