11
generated by pescan.py
Br -0.330949544 1.5741102889 -0.6149308885
Br 1.0668132176 1.9968186521 1.9834892168
C -0.413329704 -0.7237325555 -0.55896843
C 0.6154680511 -1.0394001119 0.3510258576
C -1.8481688074 -1.0409138246 -0.2191017318
H -0.1539989726 -0.8056816171 -1.6123109922
H 0.4001160272 -1.1867102757 1.4038093439
H 1.65527169 -1.031293883 0.0450686136
H -2.0819498717 -0.771741231 0.8135961435
H -2.5442607831 -0.5286738892 -0.8849917078
H -2.0002163032 -2.1217875531 -0.335877425
