11
generated by pescan.py
Br -0.620545415 1.3731768058 -0.0565446837
Br 2.4243572724 -0.0692496871 -0.0447267361
C -0.5572315592 0.201277698 -0.3068328426
C 0.6166385659 -0.7599589777 0.3461118987
C -1.8233459282 -0.7859186831 0.0408628671
H -0.4077963022 -0.1777280485 -1.3656146953
H 0.527075688 -0.7502496733 1.4361015369
H 0.5853363365 -1.7728320854 -0.0483923077
H -2.000631803 -0.7586588915 1.1232317014
H -2.7003611767 -0.3631384626 -0.46111234
H -1.6786956784 -1.8157199948 -0.2922843987
