11
generated by pescan.py
Br 2.2914610261 2.4512944318 -0.5320593727
Br -0.153791806 1.7473053296 0.9142506229
C -0.7202118261 -0.8919688998 -0.4828808102
C 0.4592727693 -0.6270696095 0.1679594553
C -1.9192842014 -1.5095630159 0.1471224183
H -0.8036608125 -0.5985481691 -1.5279333169
H 0.628120928 -0.983086892 1.179203876
H 1.3178136068 -0.2518905703 -0.3769581991
H -1.7609815724 -1.7358723341 1.2042367124
H -2.786146875 -0.8432454731 0.0546820927
H -2.1877942371 -2.4363587976 -0.3768164787
