11
generated by pescan.py
Br -0.6897091177 1.8659929772 0.184223897
Br 2.4043721056 -0.1557307581 -0.2374293139
C -0.5280048369 -0.1586594627 -0.3492867958
C 0.6465720633 -0.7808481295 0.3734701089
C -1.8437515125 -0.8394864434 -0.0117314169
H -0.3572714259 -0.0884398603 -1.422344456
H 0.6046666321 -0.6019657161 1.4470313014
H 0.6463729082 -1.8574295452 0.1856395236
H -2.025828995 -0.8461736782 1.0662076959
H -2.6800939501 -0.3375684541 -0.5013345651
H -1.8125248711 -1.8786919295 -0.3636479791
