11
generated by pescan.py
Br 2.6815375608 2.4575570835 0.3835875403
Br -0.1967440454 1.8728354444 0.4774370754
C -0.8171058635 -0.9832746741 -0.5756691784
C 0.3903440359 -0.5354639947 -0.0895339506
C -1.9082960014 -1.5549601195 0.258504067
H -1.0160644396 -0.8655747795 -1.6398535347
H 0.6821813325 -0.7371525914 0.935622005
H 1.1778143269 -0.2154646561 -0.761586321
H -1.6319869125 -1.6214148637 1.3131915013
H -2.8144664168 -0.9409294773 0.1709386103
H -2.1824155769 -2.5551593714 -0.1018328146
