11
generated by pescan.py
Br -0.6834539703 1.8055672624 0.171279138
Br 2.4051861016 -0.1574114997 -0.2352175346
C -0.5314088528 -0.122356009 -0.3386165308
C 0.6414830456 -0.7745005076 0.3730302512
C -1.8410976656 -0.8331346006 -0.0099156035
H -0.3598004434 -0.0894397306 -1.4146576245
H 0.6079169083 -0.6050910738 1.4486529273
H 0.6311876432 -1.8478094675 0.1729437783
H -2.0310965264 -0.8389128779 1.0670201089
H -2.6826880837 -0.3443627502 -0.5045900796
H -1.7914291565 -1.8715487454 -0.3591288306
