11
generated by pescan.py
Br -0.6614612054 1.5744473334 0.0902028853
Br 2.4094850865 -0.1477225922 -0.1964440974
C -0.5433108409 0.0274812996 -0.3008681561
C 0.6197857223 -0.752851205 0.3674448629
C -1.8258991514 -0.8082867784 0.0032808462
H -0.3737175635 -0.1082099616 -1.3797680857
H 0.5958959638 -0.6401045981 1.4525607457
H 0.5803257139 -1.8076192567 0.1004013842
H -2.0350223064 -0.8100442729 1.0783481662
H -2.6860437515 -0.3645952387 -0.5056065992
H -1.7152376674 -1.8414947294 -0.3387519522
