11
generated by pescan.py
Br 1.5137367989 2.6558168515 -1.2088583657
Br 0.2003213225 1.597368496 1.2035369244
C -0.6026352388 -0.8819229622 -0.4055109561
C 0.5176021877 -0.7739783764 0.3875861411
C -1.9163999205 -1.4121225419 0.047106819
H -0.5390257782 -0.5094733662 -1.4263756247
H 0.5314712179 -1.2096647922 1.3819989601
H 1.4729292758 -0.501040417 -0.0447912939
H -1.8919557823 -1.7529884977 1.0847747369
H -2.6933828014 -0.6436987417 -0.054668813
H -2.2278652816 -2.247301652 -0.5939915281
