11
generated by pescan.py
Br -0.7126864579 2.0484945482 0.2444120807
Br 2.3995341527 -0.1739837131 -0.2698737832
C -0.518612032 -0.2612960642 -0.3778433372
C 0.6599692506 -0.7983614002 0.3752221616
C -1.8487432745 -0.8628990907 -0.0233091377
H -0.3499126371 -0.0774541727 -1.4353473328
H 0.605136648 -0.5660058278 1.4376031309
H 0.6775811913 -1.8870066481 0.2505538776
H -2.0141115975 -0.8760487606 1.0565317992
H -2.6666590274 -0.322594139 -0.501273148
H -1.8666962162 -1.9018447319 -0.3858783112
