11
generated by pescan.py
Br 2.6849264017 2.49572256 0.8581022247
Br -0.1352100009 1.9213102224 0.2250552542
C -0.8544576895 -1.0196294089 -0.6099112997
C 0.3753598134 -0.5433707698 -0.2170700674
C -1.8938405519 -1.5490601635 0.3131030234
H -1.1130143247 -0.9621919823 -1.6662700477
H 0.7229322321 -0.679380301 0.8016013711
H 1.1251420873 -0.2731730212 -0.9511813013
H -1.5562640813 -1.5649354024 1.3517551867
H -2.8048140521 -0.9392341772 0.2488386
H -2.1859618342 -2.5650595562 0.0167810559
