11
generated by pescan.py
Br -0.7176753358 2.1727726322 0.2912551455
Br 2.3947206914 -0.1893351863 -0.301058375
C -0.5147964206 -0.3259848737 -0.3979842304
C 0.6673943378 -0.8109690895 0.3703110697
C -1.8514369269 -0.8784492011 -0.0278972456
H -0.3513729897 -0.0760430961 -1.4420474273
H 0.6052627249 -0.5387375078 1.4230706906
H 0.6972365999 -1.9054373822 0.2942861666
H -2.007347903 -0.8870063094 1.0530623432
H -2.6569482297 -0.3200035077 -0.5052848678
H -1.9002365482 -1.9198064785 -0.3869132695
