11
generated by pescan.py
Br 2.5010587109 2.5843176704 -0.3584533218
Br -0.1018798631 1.7917967858 0.7971769666
C -0.75853033 -0.9362437058 -0.5024261207
C 0.416609959 -0.5922806487 0.1296574029
C -1.9345908429 -1.5535976402 0.1676099537
H -0.8622908803 -0.688384238 -1.5576210546
H 0.6034238708 -0.9140944898 1.1490245424
H 1.2725543228 -0.2346382328 -0.4317558369
H -1.7384735897 -1.7896936631 1.2161034754
H -2.7974458169 -0.8759051094 0.1167435982
H -2.2356375408 -2.4702797285 -0.3552536052
