11
generated by pescan.py
Br -0.6354447606 1.4190673961 -0.0030326062
Br 2.4166924374 -0.1092648021 -0.1179233622
C -0.5534247072 0.1543912582 -0.2926306031
C 0.6119309477 -0.7499425908 0.3568499506
C -1.8191990066 -0.7926743723 0.02440084
H -0.3918439598 -0.1491972978 -1.3611819521
H 0.5559408091 -0.6988528525 1.4474774993
H 0.5645267303 -1.7804903597 0.0125383566
H -2.0155253891 -0.784022789 1.1033354813
H -2.6911843844 -0.3667731943 -0.4824345621
H -1.6776687168 -1.8212403957 -0.3165990421
