11
generated by pescan.py
Br -0.6455809573 1.4677358663 0.0305229331
Br 2.4126511472 -0.1278005524 -0.1518189319
C -0.5497441849 0.1089209196 -0.2926445966
C 0.6119442399 -0.7476216882 0.3622633973
C -1.8197466132 -0.7976780179 0.0150547786
H -0.3829541612 -0.1341444883 -1.365558568
H 0.5713718896 -0.6703753194 1.4512084615
H 0.5653462022 -1.7884247501 0.0495901884
H -2.0196496896 -0.7994143177 1.0927152591
H -2.6894962813 -0.364307522 -0.4882559261
H -1.6893415913 -1.8258901299 -0.3322769954
