11
generated by pescan.py
Br 0.1149323959 1.3769342033 -0.7291107427
Br -0.5437603123 2.0360825228 2.1058680133
C -0.3145601447 -0.6757176029 -0.618853171
C 0.7777371032 -1.2796721522 0.1064001897
C -1.6992942086 -0.8111805111 -0.0139482968
H -0.2909666387 -0.8849369394 -1.6888462363
H 0.7355896497 -1.3561248198 1.1877024215
H 1.7141469784 -1.5075525547 -0.3902117522
H -1.7096072684 -0.4429115045 1.0152384515
H -2.4452782214 -0.2615554882 -0.5910774876
H -1.9741453332 -1.8723711532 -0.0123543894
