11
generated by pescan.py
Br -0.5278729715 1.9318743755 -0.8132131133
Br 0.9902979183 1.410795903 1.6063679569
C -0.3707737818 -0.7428575835 -0.4798509428
C 0.6273778868 -0.8927188584 0.4834167911
C -1.8066889585 -1.0473095916 -0.1927087051
H -0.0657840114 -0.6846410138 -1.5188211548
H 0.3764063123 -1.2848057665 1.4624828603
H 1.6692451168 -0.9259817992 0.1908763054
H -2.07191009 -0.8087238451 0.8404554908
H -2.4789527937 -0.5107180273 -0.8639677038
H -1.9765486273 -2.1239167931 -0.3442297847
