11
generated by pescan.py
Br 2.6482121114 3.0248041912 1.1260211458
Br 0.079441489 1.9494508727 0.1740887277
C -0.8864170862 -1.0851326466 -0.636027137
C 0.3872354764 -0.7191812407 -0.3009985389
C -1.92095453 -1.5458592778 0.3302607601
H -1.1897025758 -0.9995709199 -1.6790633978
H 0.7600187666 -0.8564664216 0.7089341759
H 1.1139303537 -0.4616061438 -1.0627118218
H -1.5204994279 -1.6607406097 1.3401970529
H -2.7497739809 -0.8258967021 0.3650211867
H -2.3566905961 -2.4988011017 0.0050788465
