11
generated by pescan.py
Br 1.8732597075 2.6649230026 -0.9809968016
Br 0.047779851 1.6553879806 1.0894199514
C -0.6510317657 -0.8968348994 -0.4316017641
C 0.4963925659 -0.7335837765 0.3078630143
C -1.9272719734 -1.4578999712 0.0880930378
H -0.6445984943 -0.5476439841 -1.462786386
H 0.5703153859 -1.1415299632 1.3112768256
H 1.4183780506 -0.4149818948 -0.164677686
H -1.8516646052 -1.7612838218 1.1348141874
H -2.7344338045 -0.7206593735 -0.0082367834
H -2.2323279178 -2.3248982986 -0.5123595954
