11
generated by pescan.py
Br -0.4025599937 2.0690205929 -1.1569661347
Br 0.7393983317 1.4065027185 1.463030324
C -0.3535339356 -0.8386867379 -0.4201920768
C 0.6459768299 -0.8994031569 0.5439362133
C -1.7926931912 -1.0841638095 -0.133959273
H -0.0680040996 -0.6752132778 -1.4521889189
H 0.4213979941 -1.3041876338 1.525185516
H 1.6875935182 -0.8961199589 0.2446968284
H -1.9862016105 -1.2144408827 0.9332681409
H -2.4022107563 -0.2557549494 -0.5095374786
H -2.1243690869 -1.9865569046 -0.6664671406
