11
generated by pescan.py
Br -2.6801206415 1.0293685205 0.829476345
Br 2.7183705961 0.8912806839 0.1674726506
C -0.0504828286 0.0450333428 -0.2682386433
C -1.0898760273 -1.0178932496 -0.2287494776
C 1.315719001 -0.4970651171 0.1701523608
H -0.2916738983 0.8902187989 0.4230958338
H 0.0158681084 0.4992954968 -1.260977219
H -1.6912784708 -1.248724936 -1.0987190854
H -1.1987181864 -1.6493868956 0.6459622805
H 1.662301931 -1.2707829471 -0.5152332391
H 1.2897904165 -0.8926386976 1.1851661937
