11
generated by pescan.py
Br -3.8368028931 1.2728288403 0.0088876067
Br 2.8991758187 0.7609225493 0.0166393099
C 0.055548747 0.0737218904 0.0178130234
C -1.0168394693 -0.964944464 -0.0044718903
C 1.4425291737 -0.5864149145 -0.0004741154
H -0.0234732986 0.6963645245 0.9158610506
H -0.0266034159 0.7374689093 -0.8500581526
H -1.3618229323 -1.3870377263 -0.9421336488
H -1.3483000982 -1.4403407426 0.9122741008
H 1.6043310623 -1.1753230925 -0.9026714145
H 1.6121573057 -1.2085447738 0.8777391303
