11
generated by pescan.py
Br -5.0357977747 2.2307400744 0.0020327667
Br 2.9273767248 0.8486983173 0.0134389555
C 0.1353734657 -0.0472640139 0.0216449621
C -0.8440026577 -1.1734981817 -0.0023275004
C 1.5697999036 -0.5971760367 -0.0030002903
H 0.007289478 0.5630402675 0.9223007154
H -0.0047910883 0.6096480182 -0.8437655851
H -1.1602713593 -1.615675986 -0.94114378
H -1.1549869229 -1.6618016962 0.915044006
H 1.7716173157 -1.1703028598 -0.9072121684
H 1.7882969152 -1.2077079031 0.8723869186
