11
generated by pescan.py
Br -4.6087913791 1.4709147849 0.005924334
Br 2.9925364426 0.6321223642 0.0120923788
C 0.1406528048 0.0837604006 0.0234162806
C -0.9183424766 -0.9250166344 -0.0040504659
C 1.5166909704 -0.6636808012 -0.0035126875
H 0.0965637749 0.6856827375 0.9347943084
H 0.0917115424 0.7361822596 -0.8527402645
H -1.2873674388 -1.3293171776 -0.9417235594
H -1.3063835819 -1.3629728003 0.9104087821
H 1.6346393519 -1.2552529936 -0.9098211733
H 1.6479899894 -1.2937221397 0.8746120668
