11
generated by pescan.py
Br -4.0516508654 1.4107412084 0.0036692226
Br 2.9107575875 0.771194162 0.0149366431
C 0.073717281 0.055035984 0.0191014584
C -0.9844430853 -0.9980324655 -0.0033547318
C 1.4681766894 -0.589901406 -0.0008418769
H -0.0124619528 0.6758473408 0.9174929931
H -0.0183366321 0.718384028 -0.8475192794
H -1.34251847 -1.4086073736 -0.9415353957
H -1.3234435004 -1.4674899267 0.9140501219
H 1.6348187495 -1.1773418819 -0.9031694627
H 1.6452851985 -1.2111286696 0.8765733074
