11
generated by pescan.py
Br -4.518012658 1.794108773 0.0052453891
Br 2.9218050456 0.8012705698 0.0136372527
C 0.1030903194 0.0104489841 0.0197502959
C -0.9221926661 -1.0746895289 -0.0036161322
C 1.5154237314 -0.5950199604 -0.0011659017
H -0.0019806358 0.6277752674 0.918634029
H -0.0094496809 0.6716418614 -0.8463222822
H -1.2528933566 -1.5072472867 -0.9423325144
H -1.2406498877 -1.5602156485 0.9130992058
H 1.6961102898 -1.1779226535 -0.903660074
H 1.708652499 -1.2114503777 0.876130732
