11
generated by pescan.py
Br -4.6874255487 1.5122716972 0.0059549088
Br 2.9977422708 0.6340925429 0.0124108056
C 0.1469905512 0.0784894497 0.0233330834
C -0.9094027476 -0.9324051551 -0.0039849918
C 1.5253205559 -0.6656133855 -0.0035484544
H 0.1022824857 0.6802905925 0.9348375004
H 0.0973202505 0.7306084218 -0.8530942221
H -1.2783846406 -1.3367012244 -0.9416598813
H -1.2970580705 -1.3703298276 0.9106408569
H 1.6446276376 -1.2566042586 -0.9100044918
H 1.6578872557 -1.295398853 0.8745148862
