11
generated by pescan.py
Br -3.6846609547 0.9759235364 0.0293400566
Br 2.9333942971 0.5921485642 0.019916775
C 0.066442378 0.1580230566 0.0198239196
C -1.0361043528 -0.8195826844 -0.006776811
C 1.4004352313 -0.6411422143 -0.005753752
H 0.0328324527 0.7631126058 0.9281028906
H 0.0298208371 0.8137715685 -0.8525321147
H -1.3768176901 -1.2508406095 -0.942206566
H -1.3810932747 -1.2973471708 0.9041181412
H 1.5046495162 -1.2342399754 -0.9135260338
H 1.5110045598 -1.2811246771 0.8688944943
