11
generated by pescan.py
Br -2.6544685051 0.967722307 0.8058387633
Br 2.7249622841 0.8773417685 0.1632360561
C -0.0536060596 0.0575592553 -0.2654329781
C -1.1048920637 -0.9931751072 -0.2157750679
C 1.3083024998 -0.4974188105 0.1709264552
H -0.279650726 0.9112229997 0.4230097128
H 0.0118236834 0.5076702641 -1.2601286217
H -1.6845500504 -1.2459044283 -1.0942819871
H -1.1929505012 -1.6396029756 0.6502106615
H 1.6445353566 -1.2754972371 -0.5147095989
H 1.2803940821 -0.891213036 1.1865146049
