11
generated by pescan.py
Br -3.7171229607 1.0358574358 0.038953545
Br 2.9251394788 0.7072285215 0.0227267378
C 0.0564517986 0.1109630451 0.0094290295
C -1.0438345641 -0.8982652359 -0.013009649
C 1.4214098616 -0.5928998289 0.0036018514
H -0.0085115847 0.7410217348 0.9034351454
H -0.000645536 0.7714280114 -0.862862899
H -1.3811640501 -1.3284698222 -0.9500612695
H -1.3888103414 -1.3619077784 0.9049499639
H 1.5704941455 -1.1916767966 -0.8943097395
H 1.5664937526 -1.2145752867 0.886554284
