11
generated by pescan.py
Br -4.1357995472 1.2285654896 0.0053131445
Br 2.9581193158 0.6214943424 0.0101653561
C 0.1015622509 0.1165763526 0.0239267681
C -0.9738732834 -0.8790700658 -0.0044137546
C 1.4619230474 -0.6518643315 -0.0034243993
H 0.062004548 0.7182584423 0.9350418095
H 0.0581438416 0.7705462626 -0.8506378582
H -1.3360805031 -1.2908603444 -0.9415123134
H -1.3557057604 -1.3249770998 0.908865238
H 1.5727270862 -1.2466489514 -0.9088823693
H 1.5868790042 -1.2833200968 0.8749583786
