11
generated by pescan.py
Br -5.2428709178 2.3866469533 -0.0017917739
Br 2.933338685 0.8590359878 0.013705985
C 0.1505035206 -0.0664548278 0.0236952729
C -0.8158965168 -1.2038813084 -0.0005912565
C 1.5897615199 -0.6011660623 -0.0051972116
H 0.01817742 0.5415510189 0.9249590935
H 0.0020804832 0.5916288146 -0.8392315439
H -1.1205422695 -1.654877403 -0.9392878771
H -1.1271169288 -1.6917169871 0.9171570013
H 1.796201441 -1.1693949168 -0.9115680152
H 1.8162645631 -1.2126702691 0.8675503255
