11
generated by pescan.py
Br -3.7255975016 1.2491597655 0.0337717293
Br 2.8845665847 0.7737795929 0.0207790919
C 0.0436057045 0.0731412364 0.0106393477
C -1.0216056909 -0.9726239205 -0.0121509277
C 1.4340982543 -0.5799478818 0.0044180705
H -0.0442219502 0.7003913684 0.9047022294
H -0.0376821525 0.7308778202 -0.8616151052
H -1.3748313972 -1.3864821531 -0.950466086
H -1.3635780905 -1.4395462039 0.905148972
H 1.6032768405 -1.1740104588 -0.893074373
H 1.6018703988 -1.1960371651 0.887252051
