11
generated by pescan.py
Br -4.1680736885 1.5421043264 0.0071468283
Br 2.9067714792 0.7824498547 0.014331725
C 0.0751328991 0.0449279885 0.01888779
C -0.969240009 -1.022527639 -0.0042426318
C 1.475625026 -0.588459591 -0.000514164
H -0.0173465509 0.6639543184 0.9179370377
H -0.0229976801 0.7063753954 -0.8486503858
H -1.298317188 -1.4562092982 -0.9431023301
H -1.2842798937 -1.5104518076 0.91249115
H 1.6460789742 -1.1756226654 -0.9022831378
H 1.6565466315 -1.2078378822 0.8773991186
