11
generated by pescan.py
Br -4.7061427847 1.7284161634 -0.0021940026
Br 2.9565146021 0.7185842315 0.0087322375
C 0.1273757409 0.0393926032 0.0259263441
C -0.8891624917 -1.0139662324 -0.001688182
C 1.5364483316 -0.6398169978 -0.0047663253
H 0.0573669716 0.6383536109 0.9382980205
H 0.046425642 0.6926317227 -0.8478270856
H -1.2485480522 -1.4260775129 -0.9397026123
H -1.2576335544 -1.4690213191 0.9125216591
H 1.6790139119 -1.2249302555 -0.9117961383
H 1.6982416829 -1.2648660141 0.8718960849
