11
generated by pescan.py
Br -2.9292686929 0.542598122 -0.0993069227
Br 2.8756117894 0.684644246 -0.0265865735
C -0.0546569662 0.2305630057 -0.024265329
C -1.181101941 -0.7861934113 0.0356997061
C 1.2495371023 -0.5630024805 0.0239669277
H -0.0939272093 0.9255568941 0.8215454679
H -0.0888718653 0.8199926287 -0.9474463843
H -1.2527304822 -1.4425441347 -0.830655393
H -1.2763528955 -1.3068760451 0.9872761629
H 1.3813845629 -1.2078534634 -0.8424995861
H 1.3702745978 -1.1181793615 0.951677924
