11
generated by pescan.py
Br -3.0133052285 0.5827060188 0.032022833
Br 2.8973607533 0.5141348267 0.0248303081
C 0.0113057952 0.2315403161 0.0165695466
C -1.203986283 -0.6682378368 -0.0067586905
C 1.2807509245 -0.6241033825 -0.0033793854
H 0.000925578 0.8528885884 0.9152493477
H 0.0019908991 0.8982577909 -0.8490116778
H -1.3532567654 -1.2324067459 -0.9245185769
H -1.3508508189 -1.2802684785 0.8803637208
H 1.365218359 -1.2268591785 -0.9080217948
H 1.3637467866 -1.2689519186 0.8720563692
