11
generated by pescan.py
Br -3.1888714832 0.7110206312 0.0316913197
Br 2.9052235056 0.5467258853 0.0242841641
C 0.026202932 0.2072381872 0.0171882088
C -1.1433919629 -0.7258099201 -0.0074384405
C 1.3185386273 -0.6279506694 -0.0039409327
H 0.0040672126 0.8230954237 0.9185928299
H 0.0042932342 0.8697534394 -0.8504999368
H -1.3748772429 -1.2405781202 -0.9345647518
H -1.3760060239 -1.2864278701 0.8924700222
H 1.4122118984 -1.2272574384 -0.9095879799
H 1.4125113028 -1.2711075485 0.871207497
