11
generated by pescan.py
Br -4.3669821667 1.3542138031 0.0061028232
Br 2.9731071802 0.6311992897 0.011561113
C 0.120414921 0.0978983279 0.0234803509
C -0.9455760581 -0.904961386 -0.0042731127
C 1.4902676349 -0.6571871588 -0.0034039798
H 0.0774714388 0.7001503936 0.9344426556
H 0.0729936085 0.7510165537 -0.8519553675
H -1.3140644412 -1.3114009233 -0.9412222323
H -1.3337349301 -1.3449407928 0.9091603171
H 1.6062969317 -1.2497847053 -0.9094362203
H 1.6197058812 -1.2875034019 0.8749436529
