11
generated by pescan.py
Br -3.8273825015 1.0656014747 0.0061154992
Br 2.9388998081 0.6072916498 0.010001058
C 0.0768335881 0.1418742685 0.0238134858
C -1.0142092027 -0.8438317852 -0.0047167953
C 1.4222634761 -0.6441831033 -0.0033469134
H 0.0404377772 0.7445023409 0.933755202
H 0.0372440419 0.797218121 -0.8491078692
H -1.3618113067 -1.2687168738 -0.9409825358
H -1.3820090903 -1.3026025088 0.9073802299
H 1.5279159802 -1.24104735 -0.9083125584
H 1.5417174296 -1.2774062339 0.8748011972
