11
generated by pescan.py
Br -3.9688778184 1.2603363018 0.0066871498
Br 2.9263001317 0.7370537967 0.0165416848
C 0.075107967 0.0772861999 0.0182479344
C -1.0044546788 -0.9537294225 -0.0038884142
C 1.4558898119 -0.5958282191 -0.0007784434
H 0.000935419 0.7006639112 0.9158682652
H -0.003158772 0.7420686811 -0.8486742989
H -1.363670817 -1.3640068825 -0.9417323947
H -1.3499571231 -1.4184355754 0.9135117615
H 1.6117465953 -1.1862169037 -0.9031334642
H 1.6200402844 -1.2204908874 0.8767532197
