11
generated by pescan.py
Br -4.0111580166 1.3361920957 0.0053691031
Br 2.918272742 0.7544569751 0.0154599522
C 0.0745498066 0.0659832066 0.0186985149
C -0.9950897227 -0.9753557116 -0.0036935241
C 1.4621975202 -0.5930511736 -0.0007462715
H -0.0054799957 0.6883169005 0.9165818451
H -0.0104688484 0.7303367762 -0.847899803
H -1.352716609 -1.386777564 -0.9417355163
H -1.3367253075 -1.4434870047 0.913484389
H 1.6235210643 -1.1821280113 -0.9029864667
H 1.6329983668 -1.2157854889 0.8768707773
