11
generated by pescan.py
Br -3.3908847756 0.8232249614 0.0479895341
Br 2.9173263436 0.5686205851 0.0235262879
C 0.0434080258 0.1854660664 0.0142355988
C -1.0905659537 -0.7720242676 -0.0129396076
C 1.3553629196 -0.6333800969 -0.001525218
H 0.0105701862 0.7980874977 0.9172915139
H 0.0157259236 0.8423677573 -0.8573073139
H -1.3855101576 -1.2385650491 -0.9466494023
H -1.3866242727 -1.2895560538 0.8925321937
H 1.4565173431 -1.2347961139 -0.9046385747
H 1.4545784175 -1.2707422866 0.8768859881
