11
generated by pescan.py
Br -2.9036561939 0.4937805817 0.0242683619
Br 2.8926092632 0.4882154311 0.0226758972
C 0.000997585 0.2482423243 0.0189013077
C -1.2473310036 -0.6268437708 -0.0037952928
C 1.2548214392 -0.6221699651 -0.0036760165
H -5.61769e-05 0.8729920283 0.916159484
H 0.0001009889 0.9177059565 -0.8455361816
H -1.3291003454 -1.2253346859 -0.9113296483
H -1.3292194807 -1.2726029093 0.8708439774
H 1.3296551072 -1.2250837392 -0.9093022301
H 1.3310778169 -1.2702002515 0.8701913411
