11
generated by pescan.py
Br -2.9578975725 0.538747618 0.0234789279
Br 2.8950983374 0.5013507045 0.0226096396
C 0.0061824208 0.2399558748 0.0190546897
C -1.2252750428 -0.6475321202 -0.0040743269
C 1.2676718826 -0.6230227228 -0.0040784622
H 0.0009290193 0.8626478695 0.9172727912
H 0.0006112495 0.9086642667 -0.8454593597
H -1.3406092507 -1.2305669484 -0.9163758616
H -1.3417503491 -1.2763090143 0.8773010021
H 1.3465085409 -1.2247569663 -0.9100435643
H 1.3484307646 -1.2704785615 0.8697145242
