11
generated by pescan.py
Br -3.1619035248 1.2552238607 0.0718418681
Br 2.7929795859 0.8423619679 0.0268652097
C -0.0366799064 0.0689373503 0.0009246824
C -1.0571188853 -1.0186234678 -0.0256312852
C 1.3784898305 -0.5425745034 0.0115415713
H -0.1456581857 0.697317559 0.8933932991
H -0.1261500536 0.7190702426 -0.8771689091
H -1.3796585922 -1.4548944476 -0.964673884
H -1.3785128858 -1.501698962 0.8905454206
H 1.5646734538 -1.1399274966 -0.8801308613
H 1.5494401635 -1.1464871031 0.9018998885
