11
generated by pescan.py
Br -2.5481496256 0.1837352018 0.0042412343
Br 2.8852375127 0.3911082478 0.0034392322
C -0.024860349 0.3069568456 0.026502983
C -1.4373778737 -0.4916388321 -0.0032442085
C 1.1728873411 -0.6162141108 -0.0047740161
H -0.0205116913 0.9242258691 0.9322399289
H -0.0189154563 0.9866865724 -0.8334786061
H -1.2156405851 -1.1886141631 -0.8570598849
H -1.2283662692 -1.2274817818 0.8207280754
H 1.2097623626 -1.2246079124 -0.908999342
H 1.225834634 -1.2654559366 0.8698046035
