11
generated by pescan.py
Br -3.2536104888 0.7492498408 0.037477896
Br 2.9090597565 0.554367369 0.0248899766
C 0.0316185375 0.2001461603 0.0158855443
C -1.1245296744 -0.7423341829 -0.0093196534
C 1.3307267056 -0.6296231204 -0.0032012028
H 0.0056516303 0.8149878761 0.9177364064
H 0.0073148954 0.8605167821 -0.8532335577
H -1.3796590703 -1.2404214917 -0.9388638537
H -1.3801796878 -1.2877397167 0.8931031884
H 1.4273326039 -1.2294713725 -0.9080584685
H 1.4261777922 -1.2709771439 0.8729847245
