11
generated by pescan.py
Br -4.3728485138 1.6976295423 0.0065053582
Br 2.9138614137 0.7965425347 0.0138615581
C 0.0909156362 0.0230178111 0.0193974985
C -0.9409096153 -1.0558572096 -0.0039724912
C 1.499708878 -0.5915189625 -0.0009502472
H -0.0103145018 0.6407391382 0.9184568002
H -0.0168843705 0.6842031368 -0.8473217891
H -1.2697467965 -1.4898563971 -0.9427221053
H -1.2590535156 -1.5416155951 0.9127702331
H 1.676674995 -1.1757506773 -0.9033160741
H 1.6884983906 -1.2088333214 0.8766912589
