11
generated by pescan.py
Br -2.6620492944 0.7862832357 0.6568933921
Br 2.7671116994 0.8061264871 0.1259149026
C -0.0650807694 0.1186317474 -0.2266542382
C -1.1583495425 -0.9007615931 -0.1510468072
C 1.2826742911 -0.5083230426 0.1562792023
H -0.2237025727 0.9726796422 0.4750944483
H -0.0167997179 0.5690610844 -1.2219559409
H -1.5849012559 -1.2814890972 -1.0722292166
H -1.1717582113 -1.5820719981 0.6941235486
H 1.5627583423 -1.2864731707 -0.5536876928
H 1.2699950313 -0.9149582952 1.1666754018
