11
generated by pescan.py
Br -2.6093367873 0.1664538306 0.004103604
Br 3.2027122068 0.4324003889 0.0310002504
C 0.1558406619 0.2994908028 0.0221409427
C -1.8982212973 -0.5366011868 -0.0012250117
C 1.2937610886 -0.5816786775 -0.0097122726
H -0.0097829156 0.8507218592 0.9509357194
H -0.0160217753 0.9083760807 -0.8690160066
H -1.4784917031 -1.1913788188 -0.8167779244
H -1.4867218514 -1.2134872618 0.8004933458
H 1.423565179 -1.1450929759 -0.9309242031
H 1.4225971937 -1.2105040413 0.8683815561
