11
generated by pescan.py
Br -3.7429089534 1.1187148292 0.0312558769
Br 2.9131950289 0.7330579712 0.0201856959
C 0.0556096557 0.0938821757 0.0119726412
C -1.0304144923 -0.9308166758 -0.011146448
C 1.4312643823 -0.5891484647 0.0025146867
H -0.0171838225 0.7211901476 0.9074860965
H -0.0124638115 0.7554368502 -0.8589097803
H -1.3820799663 -1.346714304 -0.9487683674
H -1.3887186139 -1.382495476 0.9070515357
H 1.586824337 -1.1845106062 -0.8965220909
H 1.5867772561 -1.2098934472 0.8842851537
