11
generated by pescan.py
Br -4.9776746281 2.1734026082 0.0031456871
Br 2.9300484872 0.8372383807 0.0134206923
C 0.1312945039 -0.037004256 0.0211969876
C -0.8550658143 -1.1573729022 -0.0027309265
C 1.5618633186 -0.5976678386 -0.0024782542
H 0.0073426999 0.574482852 0.9216090438
H -0.0037151782 0.6202739187 -0.8447027446
H -1.1675061199 -1.6021998144 -0.9417202755
H -1.160862161 -1.6494681037 0.914524075
H 1.7592600116 -1.1732896706 -0.9061312921
H 1.7749178802 -1.209696174 0.8732660069
