11
generated by pescan.py
Br -3.4652806809 0.8568824368 0.0464845948
Br 2.9223166635 0.5730478836 0.0234276572
C 0.0494146406 0.1796984857 0.014612942
C -1.0747820646 -0.7838591161 -0.0125126561
C 1.3668127832 -0.6356485156 -0.001974004
H 0.0161789614 0.7905177055 0.918866476
H 0.020691631 0.8353278247 -0.857840641
H -1.385778183 -1.2384498515 -0.9468767493
H -1.385936651 -1.2899848351 0.8948282054
H 1.4687695714 -1.2357760423 -0.9057204646
H 1.4674963284 -1.2730519758 0.8761066395
