11
generated by pescan.py
Br -2.6995451754 1.1732801213 0.8967803099
Br 2.6966839506 0.9220765624 0.1824012567
C -0.0496102044 0.0195591213 -0.2769902896
C -1.068060554 -1.0654865923 -0.2548192834
C 1.3225835902 -0.4948668263 0.1702950796
H -0.3245036485 0.8492312503 0.4170328447
H 0.0192793667 0.4806885019 -1.2662719245
H -1.6847812416 -1.2768702882 -1.1194319787
H -1.2043539249 -1.6764410242 0.6309301672
H 1.6932201115 -1.258049541 -0.5144017576
H 1.29898773 -0.8944152851 1.1838825757
