11
generated by pescan.py
F 0.0322468728 -0.1374365839 2.6385578793
F 1.0320750838 -1.0895546689 -0.8024914721
C -0.4627700686 0.7982430825 -0.9067858152
C 0.768250573 0.192053302 -0.4163738114
C -1.7304179097 0.8010210312 -0.1124219235
H -0.4852508801 1.1705606605 -1.9331528499
H 1.6915186148 0.7556533555 -0.2729976484
H 0.4276805513 -0.1680907756 1.7919818507
H -2.4276233109 0.0269412063 -0.4718634493
H -1.5327450228 0.6034984988 0.9439282572
H -2.2592685037 1.7575118915 -0.2066790175
