11
generated by pescan.py
F 0.1665891903 1.1505782214 1.3953462781
F 0.6157984432 -0.8644906093 -1.7683115484
C -0.2664776818 0.7269066059 -0.1930353093
C 0.6489388797 -0.373026952 -0.4906792264
C -1.7378384131 0.424341595 -0.094060129
H -0.0389542501 1.6708364885 -0.6989281574
H 1.6332347388 -0.4763965611 -0.0401607339
H 0.3995074237 1.4264736426 2.360790309
H -2.1503617838 0.1323004706 -1.0705501701
H -1.9189431523 -0.4053242108 0.5970877346
H -2.2977943946 1.2982043092 0.2541979527
