11
generated by pescan.py
F 1.1452426356 -0.4469197598 2.623333883
F 0.6197841087 -1.1682939958 -0.4263322489
C -0.4584415686 0.9373971028 -0.6510924124
C 0.6046257731 0.1418065922 0.0459316334
C -1.8958751595 0.8495276225 -0.2762156219
H -0.1806117036 1.3343166935 -1.6256617412
H 1.6077184098 0.5622638668 -0.0849152314
H 0.4632742222 0.0607639954 1.1853841943
H -2.3539215166 -0.0712594574 -0.6742371613
H -2.0273975131 0.8203311712 0.8112978975
H -2.4706986881 1.6904661685 -0.675792191
