11
generated by pescan.py
F 0.3343888031 1.5022993273 1.596474965
F 0.8303318984 -1.0896392686 -1.5599005008
C -0.3270230407 0.7253995626 -0.4648259856
C 0.6920053859 -0.3074625205 -0.4455049081
C -1.74829877 0.4886284366 -0.0545953204
H -0.1102314093 1.6621333556 -0.9822095688
H 1.639686996 -0.2025354018 0.0806303082
H 0.1439559754 0.66199111 1.9401232205
H -2.3808076091 0.2172320678 -0.9142778298
H -1.8326828372 -0.3355558084 0.6635362995
H -2.1876283923 1.3879111393 0.3922503203
