11
generated by pescan.py
F -0.5097691356 -1.3869892836 0.2067648401
F 1.9353230626 0.0571709998 -0.2037681668
C -0.4373905896 0.0094745736 -0.3360511945
C 0.7808472359 0.6461479331 0.2834920344
C -1.7424905368 0.6874812115 0.0107522528
H -0.2973317632 -0.1102950752 -1.4140666064
H 0.8041980888 1.7177286099 0.0437920332
H 0.7473588072 0.5231807615 1.3721211638
H -1.8546702951 0.7849930965 1.0946044427
H -1.7941291365 1.6854714313 -0.4372582667
H -2.5782457377 0.0960357416 -0.3686815325
