11
generated by pescan.py
F 0.1599333998 0.4921498023 2.2664387793
F 0.8519781179 -1.1343169258 -1.1000410351
C -0.3952370465 0.8732233999 -0.6570128058
C 0.7350933384 0.0027699712 -0.3579251069
C -1.7600808878 0.7010451654 -0.0731550038
H -0.2916778709 1.5204648568 -1.5318486769
H 1.7143458049 0.393042789 -0.0775083166
H 0.397260113 -0.0835471986 1.5631952816
H -2.2785588571 -0.1581577794 -0.5295964117
H -1.7004890203 0.519211784 1.0023897173
H -2.3788670914 1.5845151353 -0.2532344214
