11
generated by pescan.py
F -0.4924694983 -1.2908287545 0.1351364572
F 1.9365341469 0.0308678305 -0.1632261055
C -0.4404436926 -0.0700640806 -0.3087410699
C 0.7709260189 0.6401365865 0.2837242703
C -1.737740102 0.6704534903 0.0239227947
H -0.303282833 -0.0858026394 -1.4037374896
H 0.7850277454 1.6946327455 -0.01623928
H 0.7416284654 0.5761591041 1.3792060689
H -1.8659544369 0.7612280013 1.1079776097
H -1.7502309692 1.6720740952 -0.4151017224
H -2.5902948447 0.1115436212 -0.3712215333
