11
generated by pescan.py
F -0.5488016549 -1.5831619448 0.369647551
F 1.9360041613 0.1279525922 -0.2968216207
C -0.4290429494 0.1520121432 -0.3950923307
C 0.799876866 0.6593970642 0.2753684861
C -1.7490069245 0.7221111515 -0.0125304404
H -0.2927777851 -0.1439197098 -1.4320633816
H 0.8347217575 1.7567397283 0.175192266
H 0.7606051398 0.4018751883 1.3384199493
H -1.8319144911 0.8341894442 1.0708386511
H -1.8748595689 1.7102313075 -0.4764583468
H -2.5511045505 0.0729730351 -0.3648007835
