11
generated by pescan.py
F 0.0485204756 0.0599902726 2.4672179074
F 0.964201526 -1.1218077042 -0.8969176589
C -0.4340983928 0.8344230378 -0.808043359
C 0.7593487494 0.1202648649 -0.3727444666
C -1.7405147925 0.7727611543 -0.0843100218
H -0.4039195191 1.3099199692 -1.7911787676
H 1.7080405746 0.6242584961 -0.1790793512
H 0.4192065742 -0.1283571948 1.6253660276
H -2.3535826138 -0.0690931524 -0.4471005431
H -1.5848783066 0.6262246482 0.9868094061
H -2.3286272748 1.6818146082 -0.248317173
