11
generated by pescan.py
F 1.2080504508 -0.4694182965 2.695277174
F 0.6016320474 -1.1743154744 -0.4173416598
C -0.4591953847 0.9397807168 -0.656505671
C 0.5974401766 0.1439529688 0.0450199222
C -1.8978393223 0.8482296262 -0.2863482508
H -0.1811009809 1.3507520091 -1.6248571215
H 1.6023507446 0.5552032087 -0.0996177488
H 0.4422823377 0.0828900341 1.1681817626
H -2.3556706109 -0.0679989452 -0.6947063735
H -2.0321570934 0.8079140749 0.8006403332
H -2.4720933649 1.6934090774 -0.6780413665
