11
generated by pescan.py
F 0.2334129892 1.1902293436 1.8734532914
F 0.7953167167 -1.1877398669 -1.2695396898
C -0.3526840651 0.7968716857 -0.5248298983
C 0.7231220128 -0.1710669048 -0.363918269
C -1.7572605061 0.5678151083 -0.0637973389
H -0.1958224091 1.6081279081 -1.2407716677
H 1.7100079109 0.100494134 0.0084913484
H 0.3088781036 0.2810015687 1.6857255111
H -2.3732794149 0.1398387655 -0.8699498654
H -1.8069216583 -0.1242698696 0.78163429
H -2.2310726797 1.5090991275 0.2352052881
