11
generated by pescan.py
F -0.5195704238 -1.4355452958 0.2434858216
F 1.9353479261 0.0717063067 -0.2239820589
C -0.435232182 0.0476216074 -0.3507381614
C 0.7859704053 0.6492402009 0.2833424899
C -1.7448184386 0.6962168325 0.0042221595
H -0.294538727 -0.1199902543 -1.4194908898
H 0.8137350829 1.7285036655 0.0758848191
H 0.7499288896 0.4949095005 1.3672275702
H -1.8484490826 0.7996127701 1.0878434723
H -1.8171133154 1.6908225539 -0.4504428313
H -2.5715611346 0.0873031126 -0.3656523912
