11
generated by pescan.py
F 0.2243388413 1.2303359566 1.5542186049
F 0.7983212544 -0.9382545068 -1.7913645251
C -0.3192969747 0.689882923 -0.400869847
C 0.6478751916 -0.3811434304 -0.5471079198
C -1.7662216377 0.4246635496 -0.1192383706
H -0.0617463914 1.6804249024 -0.7823443429
H 1.5628669081 -0.455184238 0.0362256438
H 0.425947029 1.4035473847 2.4519546698
H -2.3236003434 0.1842117274 -1.0386801103
H -1.8855618394 -0.4270485717 0.5584180733
H -2.2492230379 1.2989673032 0.330488124
