11
generated by pescan.py
F -0.4639564893 -1.1499966195 0.0211694737
F 1.9471600858 -0.0224144175 -0.080939739
C -0.4400616608 -0.1969224875 -0.280623173
C 0.7695662894 0.6379693063 0.2869726309
C -1.7462012167 0.6440036872 0.05051469
H -0.3131097693 -0.0394964677 -1.408110414
H 0.7818496542 1.6547320289 -0.1167211481
H 0.738364256 0.6765104924 1.386999433
H -1.9019768257 0.715026614 1.1355699354
H -1.6980158024 1.6525900964 -0.3655340438
H -2.6199185212 0.1383977668 -0.377597645
