11
9998
 F    1.357600    0.611300    0.151500
 C   -0.630200   -0.630500    0.280500
 C    0.769500   -0.528800   -0.298100
 C   -1.496900    0.548000   -0.133900
 H   -0.568500   -0.651900    1.374300
 H   -1.098000   -1.565100   -0.046700
 H    1.386100   -1.374200    0.020100
 H    0.753300   -0.494500   -1.391400
 H   -2.499800    0.449100    0.293300
 H   -1.071200    1.493600    0.216700
 H   -1.595000    0.598200   -1.223100
