11
bond 1 3
Cl        1.7594450848   -0.5766463235   -0.2078650319
C        -0.7871698552    0.5567550010   -0.3244473207
C         0.5958372544    0.7416250804    0.2855481172
C        -1.5342533016   -0.6858536181    0.1632985952
H        -0.6974805334    0.5440065850   -1.4165738300
H        -1.3607317746    1.4593487749   -0.0698349470
H         0.5652259881    0.7172307066    1.3769997277
H         1.0571515236    1.6755475696   -0.0382048293
H        -1.6604790250   -0.6694481488    1.2517512361
H        -2.5296316999   -0.7421698433   -0.2876549511
H        -0.9923136611   -1.5987957839   -0.0983167663
