13
generated by pescan.py
S 2.6793691566 0.5003374107 0.4080892231
S -2.8965072211 0.0082043225 0.0909000151
C -0.0548457071 0.1609944507 0.1864975145
C 1.2596339931 -0.5918765539 -0.0412496532
C -1.255340831 -0.7288710371 -0.1549200227
H -0.1271881605 0.4884921434 1.2283794386
H -0.0819735843 1.0655052711 -0.4290569032
H 1.2929014937 -1.4942564691 0.5769339363
H 1.3547598186 -0.8878145226 -1.0904639427
H -1.2527281412 -1.6466595259 0.450670632
H -1.2200136355 -1.0685620468 -1.1990181915
H 3.6546402015 -0.3819265444 0.1138726999
H -2.2445073827 2.0000351014 1.0382682537
