13
generated by pescan.py
S 2.6024324338 0.6311233784 0.1986178309
S -2.9059932378 -0.0074578223 -0.5298553811
C -0.1011331389 0.1782956476 -0.1625758737
C 1.21250286 -0.5776134875 0.0581620037
C -1.2766203892 -0.7894435524 -0.337301626
H -0.3007283088 0.8446566714 0.6837796433
H -0.0182981363 0.8127343721 -1.052074147
H 1.1613514122 -1.1717742129 0.9754566225
H 1.4100792733 -1.2520789826 -0.7805241841
H -1.3788684026 -1.4482112869 0.5383216312
H -1.1212115716 -1.4589924866 -1.1924590935
H 3.583983611 -0.274727751 0.3776902068
H -1.759294405 1.9370905128 2.4016653672
