13
generated by pescan.py
S 2.7803915756 0.4591658496 -0.0087516059
S -2.8096562413 0.4152997962 -0.0604763001
C 0.023652967 0.2687352807 -0.0006798388
C 1.275427319 -0.6141972358 -0.0033610309
C -1.2558850354 -0.5707551615 0.0083637615
H 0.0392073981 0.921722364 0.8800753579
H 0.0237353698 0.9211892032 -0.8801226214
H 1.2978548346 -1.2528583863 0.8845438113
H 1.2914814595 -1.2534232201 -0.8909991446
H -1.29297926 -1.2348187756 0.8767974439
H -1.3101118611 -1.2036392018 -0.8842577073
H 3.6867356264 -0.5384115381 -0.002843729
H -2.6416531522 1.1055900255 1.2606116035
