13
generated by pescan.py
S 2.7573440794 0.4869481789 0.024531676
S -2.8217833547 0.3052718904 -0.1765819066
C 0.0082995519 0.2352643419 -0.0367461224
C 1.2782010113 -0.6207659976 -0.0137632661
C -1.2549320768 -0.6274341962 -0.0430474781
H -0.0134364356 0.8874446051 0.8443903134
H 0.0094704461 0.8874548277 -0.9162379471
H 1.2927970609 -1.2634574506 0.8713581905
H 1.3308932094 -1.2546393171 -0.9038865656
H -1.2965474526 -1.288972538 0.8269434774
H -1.2804328295 -1.2690119148 -0.9359874406
H 3.6860854595 -0.4892809655 0.0596743496
H -2.5877546693 1.4347795358 1.5782517198
