13
generated by pescan.py
S 2.7599034934 0.4838931221 0.0226054823
S -2.8213037957 0.3200620037 -0.1575945474
C 0.0097409323 0.239312155 -0.0280743608
C 1.2776746015 -0.6198560193 -0.0134853206
C -1.2554485991 -0.6204534879 -0.0325140758
H -0.0054583786 0.8889449073 0.8551361311
H 0.0090558053 0.8942697045 -0.9055270846
H 1.294496958 -1.2660523343 0.8690458749
H 1.3248892306 -1.2503350842 -0.9062942909
H -1.2963861784 -1.2820072334 0.8374288467
H -1.2853644321 -1.260341805 -0.9256307221
H 3.6863168141 -0.4948597728 0.0482271975
H -2.5899134513 1.3910238441 1.5155758697
