13
generated by pescan.py
S 2.7159238084 0.526477349 0.0443900002
S -2.8387967356 0.1641781519 -0.3200547956
C -0.0211541353 0.1980584193 -0.0917631132
C 1.2698312107 -0.6224528729 -0.0143165865
C -1.2588041833 -0.7029475 -0.134022365
H -0.0997140359 0.8558218024 0.782004594
H -0.0077426042 0.8427610997 -0.9766457681
H 1.2744415942 -1.2454078815 0.8847961756
H 1.3661820391 -1.2735040749 -0.888396413
H -1.3028817208 -1.3753257973 0.7285277201
H -1.2254810741 -1.3436351875 -1.0322704614
H 3.6657223465 -0.4209696634 0.1717628409
H -2.4293225097 1.8205481552 2.0248901719
