13
generated by pescan.py
S 2.7729736276 0.467668164 0.0057915696
S -2.8158761232 0.3850608639 -0.0806706591
C 0.0177950802 0.2596717479 0.0010040444
C 1.2750211405 -0.6153448321 -0.00938206
C -1.2566867134 -0.5871046534 0.0055907515
H 0.0288495077 0.9048156454 0.8877126263
H 0.0132451941 0.9196737039 -0.8727411479
H 1.2985674608 -1.2663205102 0.8694965589
H 1.298076886 -1.2417640727 -0.9059292402
H -1.2934199529 -1.2503184087 0.8746396259
H -1.3027141374 -1.2216637969 -0.8871307233
H 3.6857904014 -0.5240484241 0.0052444333
H -2.6134213713 1.1932735731 1.2852732205
