13
generated by pescan.py
S 2.7617101945 0.4814321705 0.0209666061
S -2.8208790547 0.335386538 -0.1379531757
C 0.0106417195 0.2431886435 -0.0200432648
C 1.2767618874 -0.618809619 -0.0130942097
C -1.2564534102 -0.6138103207 -0.0227897346
H 0.0016878548 0.8903768169 0.8651070879
H 0.0083768889 0.900789792 -0.8955362147
H 1.2956206564 -1.2680501396 0.867164722
H 1.3190343413 -1.2463254355 -0.9082097421
H -1.2964776071 -1.275319544 0.8472037513
H -1.29064633 -1.252237678 -0.9158536791
H 3.6860097837 -0.499497161 0.0383224679
H -2.5871849245 1.3464749372 1.4536143856
