13
generated by pescan.py
S 2.3804361814 -0.0311791516 1.1340357473
S -2.5641111751 -0.3557107034 -0.4041510466
C 0.1859225625 -0.3368167499 -0.5066480354
C 1.5586583724 -0.8944854267 -0.2993085727
C -0.9266875694 -1.0324718671 -0.2491053817
H -1.2004738535 3.2958639892 1.5858711186
H 0.1239673613 0.688499302 -0.8660834284
H 1.5193064321 -1.9674040421 -0.0962572059
H 2.179771266 -0.7244766779 -1.1835883484
H -0.8730104203 -2.0523686515 0.1226557866
H -3.2079932311 -1.5348101046 -0.4902209137
H 3.6453188824 -0.3890553819 0.8308265081
H -1.7129018085 2.7580184656 1.6008757724
