13
generated by pescan.py
S 2.788272075 0.4442970496 -0.024156828
S -2.7904627942 0.486094913 0.0813692465
C 0.0302069385 0.2918444677 0.0463505255
C 1.2693632287 -0.6075791953 -0.0004312866
C -1.2586970161 -0.5355291856 0.0677793355
H 0.0762955061 0.9278847618 0.9383111372
H 0.0195585846 0.9594311058 -0.8216235911
H 1.3027297215 -1.2625152912 0.8754021569
H 1.2528136575 -1.2326327746 -0.8981521921
H -1.2828402006 -1.2094035856 0.9299991654
H -1.3377304383 -1.1552061912 -0.8292437632
H 3.6794185957 -0.5660448223 -0.0618480372
H -2.6407278584 0.882958748 0.8751441312
