13
generated by pescan.py
S 2.6537713962 0.529141298 0.4055633621
S -2.8963169542 -0.0747074642 0.0057789946
C -0.0672353124 0.1184753116 0.1347571194
C 1.2692260309 -0.6088853311 -0.0417248538
C -1.2444510975 -0.8014053316 -0.2072536961
H -0.1705939101 0.4708272341 1.166344068
H -0.0974972152 1.0054383924 -0.506584367
H 1.3090443989 -1.4914986719 0.6038202331
H 1.394809478 -0.9330318405 -1.0792447436
H -1.2369501811 -1.7015477347 0.424552784
H -1.1826215264 -1.1682795874 -1.2403192198
H 3.6567502558 -0.3341742272 0.1509977766
H -2.2797323629 2.4132459527 1.3622125425
