13
generated by pescan.py
S 2.4061946091 -0.035445986 1.1255916715
S -2.5480849741 -0.2915063371 -0.3787076722
C 0.2002993036 -0.3189117402 -0.5030489678
C 1.5656770016 -0.8956636867 -0.2987729087
C -0.9211560191 -0.9940985309 -0.2301438013
H -1.2544325202 3.1932366054 1.5520982403
H 0.1519173544 0.7037163663 -0.8717976898
H 1.5116690987 -1.9666141531 -0.0889672494
H 2.1851186034 -0.7399287114 -1.1867955122
H -0.8809414348 -2.0108811134 0.1516481999
H -3.2130308409 -1.4597724003 -0.4520888256
H 3.6651084155 -0.4092659423 0.816594402
H -1.7601345973 2.6487396298 1.5432931132
