13
generated by pescan.py
S 2.6722159679 0.5088011733 0.4073489862
S -2.8937739113 -0.0167962607 0.0694074921
C -0.0575006688 0.1434919614 0.1712985407
C 1.265063595 -0.599407145 -0.0429438154
C -1.2512390892 -0.7545296193 -0.1709334029
H -0.1380901553 0.4757201278 1.2112264531
H -0.0865544641 1.0438740799 -0.4506040244
H 1.3022918766 -1.496826375 0.5821329236
H 1.3694219629 -0.9020691987 -1.0893103008
H -1.2465123653 -1.6691113924 0.4395789444
H -1.2096838355 -1.0999339358 -1.2128662834
H 3.6577376271 -0.3659313582 0.1251541249
H -2.2751765399 2.1563179428 1.139413362
