13
generated by pescan.py
S 2.6428852521 0.5395426913 0.4085487711
S -2.9014017692 -0.0943327814 -0.0111004601
C -0.074492273 0.1118139441 0.1282573805
C 1.2668983093 -0.6081641071 -0.0407159473
C -1.245682091 -0.8150769536 -0.2153922604
H -0.183798617 0.4666580455 1.1584467093
H -0.1072360788 0.9966478281 -0.5159619293
H 1.3095058126 -1.488510754 0.6077260411
H 1.3985921539 -0.9347113487 -1.0767220974
H -1.236309591 -1.7131338581 0.4193225902
H -1.1778759984 -1.1849971983 -1.2469882531
H 3.6521851757 -0.3182260029 0.1602803026
H -2.2350662853 2.4660884951 1.4031981527
