13
generated by pescan.py
S 2.8314613232 0.2941979297 0.412320318
S -3.3649209827 1.1937051084 0.5451018912
C 0.0686068427 0.2400779689 0.2564584982
C 1.2958175543 -0.6419218584 -0.0212889919
C -1.2153790202 -0.4778873487 -0.1003661574
H 0.0586796988 0.5227364241 1.3151014343
H 0.1498453845 1.1677107018 -0.3208697592
H 1.2502219666 -1.5542377602 0.5795304624
H 1.3325932339 -0.9202055435 -1.0779954018
H -1.4327043407 -1.3687422915 0.4944267556
H -1.364752074 -0.666283785 -1.1664448151
H 3.7071390993 -0.6707242794 0.0685365791
H -2.2084086857 0.3051747337 0.1943981867
