13
generated by pescan.py
S 2.6703528183 0.5113387145 0.4056378513
S -2.8919757637 -0.0291979514 0.0554763383
C -0.0577384989 0.1373614962 0.1607195435
C 1.2677373041 -0.6033440297 -0.0431084802
C -1.2481727715 -0.7656713299 -0.1803552465
H -0.1439017819 0.4760335546 1.1983659328
H -0.086065748 1.0336272901 -0.4672421231
H 1.3046043623 -1.4965720979 0.5879128848
H 1.3770264174 -0.9124817629 -1.0870593606
H -1.2425977754 -1.6765944667 0.4356890559
H -1.2029121794 -1.1169120733 -1.2200509622
H 3.6596825173 -0.3615699813 0.1311639243
H -2.2978379006 2.2275816378 1.2017516417
