13
generated by pescan.py
S 2.6726637512 0.5103257644 0.4011833678
S -2.8876919284 -0.0374652959 0.0384777079
C -0.0546347093 0.1316025054 0.1488860597
C 1.272363059 -0.6090970648 -0.0434553836
C -1.2430811707 -0.7748215875 -0.1903799079
H -0.1455790839 0.4780032477 1.1834724405
H -0.0809179293 1.023286169 -0.4858810865
H 1.3072971627 -1.4968323698 0.5953340196
H 1.3861831528 -0.9270044593 -1.084260152
H -1.2389310446 -1.6796809914 0.4346771477
H -1.1925310349 -1.1344990756 -1.2266559468
H 3.6637971707 -0.362589112 0.133367647
H -2.3507363952 2.3023702698 1.2741350866
