13
generated by pescan.py
S 2.788549061 0.4474648761 -0.0215857096
S -2.7960419381 0.4741692052 0.0305224316
C 0.0295577039 0.2849711711 0.0266942696
C 1.2721580852 -0.6102379608 -0.0016302147
C -1.2591686293 -0.5424341106 0.0458618276
H 0.0680653389 0.9319752089 0.9111309945
H 0.0239532645 0.9434792374 -0.8482952016
H 1.3022122766 -1.2557248085 0.881089465
H 1.2679451065 -1.2415933324 -0.8948645936
H -1.2901675985 -1.2104564294 0.91211539
H -1.3303408501 -1.1687454 -0.8478019572
H 3.6835788446 -0.560152398 -0.035157971
H -2.652100665 0.9308847411 1.0208212693
