13
generated by pescan.py
S 2.4186881741 -0.0392101216 1.122016351
S -2.5391065013 -0.2591475333 -0.3648490488
C 0.2076982716 -0.3105988519 -0.5013071591
C 1.56943577 -0.8965529631 -0.2989505434
C -0.9179389297 -0.9755633901 -0.220567169
H -1.2826991415 3.1431956485 1.5349862209
H 0.1654023401 0.7106992721 -0.8746052619
H 1.5084614227 -1.966672468 -0.086837348
H 2.1881122488 -0.7468032982 -1.1884857209
H -0.8845739094 -1.9907794728 0.1659347846
H -3.2155909988 -1.4211621257 -0.4325974707
H 3.6749364026 -0.4193002387 0.8097194912
H -1.7846191491 2.5954975428 1.514445874
