13
generated by pescan.py
S 2.7909430585 0.440779773 -0.0270051605
S -2.7842355731 0.4978639836 0.1015640691
C 0.0315872996 0.2948626645 0.0561587048
C 1.268576772 -0.6070094653 -0.00082128
C -1.2591344464 -0.5292798075 0.0802836903
H 0.0846754808 0.928646706 0.9493141376
H 0.0184245916 0.9651080034 -0.8097561673
H 1.3060378832 -1.265685412 0.8718346112
H 1.2471056468 -1.2258527577 -0.9025431054
H -1.2842609073 -1.2037072715 0.9420718825
H -1.3418208069 -1.1475874774 -0.8171368634
H 3.6795216191 -0.5713427606 -0.0737438276
H -2.649220618 0.8468038216 0.8086793085
