13
generated by pescan.py
Se 3.5309301786 1.7044125146 0.0349395398
C 0.2942233436 -2.2026706457 0.5530421434
C -0.7442329334 -1.5700690485 -0.2369767065
C -2.1701846042 -2.0424971922 0.0238030411
Se -0.6267028998 0.5150293031 0.1054154112
H -0.8227814146 0.37000722 1.5577179248
H 2.2577426696 0.933189199 0.0377636048
H 1.3279710954 -2.1943005245 0.2270015721
H 0.0861631237 -2.5264312048 1.5686441502
H -0.5090415837 -1.5668456759 -1.304567848
H -2.4256493986 -1.9633232223 1.0850915144
H -2.8965107847 -1.4595037699 -0.5461090729
H -2.2639267918 -3.0964009527 -0.2642612747
