13
generated by pescan.py
Se 0.6972879381 0.0898272409 1.4501006433
C 0.5476846615 -1.6773719796 0.1483227152
C -0.8041530744 -1.861175305 -0.2792608887
C -1.8176293218 -2.6215460757 0.5059247727
Se 0.432298654 1.9979584866 -0.9915352548
H -0.9081411304 2.2939238156 -0.4446344198
H 2.1532844929 0.2254598588 1.2671730008
H 1.2408945273 -1.370705233 -0.6316382312
H 0.9464417956 -2.4509829937 0.8030031028
H -1.1449126843 -1.2750442127 -1.1294098987
H -1.3531135838 -3.2853651544 1.2414379963
H -2.4921552705 -1.9419538186 1.0512372708
H -2.4597890042 -3.222424629 -0.1492198088
