13
generated by pescan.py
Se 3.5444166198 1.7746689322 0.010052523
C 0.2788787611 -2.2336116903 0.5667833552
C -0.7441124252 -1.5840727457 -0.2297190009
C -2.1785377841 -2.037615675 0.0161770098
Se -0.5977365986 0.4980503949 0.1209470713
H -0.79509585 0.3508466314 1.5727965388
H 2.2746494155 0.9974368194 0.0099642728
H 1.3159849431 -2.2329744265 0.2517272878
H 0.056778763 -2.5614150585 1.5781042858
H -0.4992549134 -1.5802353953 -1.2951793802
H -2.4433291334 -1.9581449285 1.0751272233
H -2.8912214374 -1.4430887605 -0.5589773393
H -2.2834213604 -3.0892480977 -0.2762998474
