13
generated by pescan.py
Se 2.5116905134 0.1567988865 1.0293791423
C 0.3717763053 -1.7904601875 -0.0837013796
C -0.8678016397 -1.9692645883 -0.5956592515
C -2.0969833536 -2.263714803 0.2061516779
Se -0.2376273003 1.041969909 -0.1005982667
H -0.9207163821 0.6621652406 1.1526787885
H 2.7685814393 1.5510876014 1.4454223617
H 1.2302370012 -1.6473628432 -0.7285263085
H 0.5590699334 -1.8820967023 0.9808156332
H -0.9980091328 -1.9131475658 -1.6757138905
H -1.8951177435 -2.2555297328 1.280930553
H -2.8908956374 -1.5391851054 -0.0089819349
H -2.4962040033 -3.2506611092 -0.0606971249
