13
generated by pescan.py
Se 1.516764562 0.0360575208 1.0718960192
C 0.5450358971 -2.0553453748 -0.1288450668
C -0.746906728 -1.9026735337 -0.4477908655
C -1.9027478186 -2.2649376666 0.4382152325
Se -0.2302545342 2.0213102162 0.1487766304
H -0.9952639639 0.8609010588 -0.3533838444
H 2.3257609209 1.1833172968 1.6005938262
H 1.3310970962 -1.8619581868 -0.8507400414
H 0.8390290871 -2.5544670373 0.789977744
H -0.999057012 -1.4763695655 -1.4197394144
H -1.5623936233 -2.6695236501 1.3955491897
H -2.5439860846 -1.3983885178 0.6415690633
H -2.5390767989 -3.01732056 -0.0445774727
