13
generated by pescan.py
Se 3.5141472615 1.5609299454 0.0920609007
C 0.3238325981 -2.1331951098 0.5225693419
C -0.7497474514 -1.5407884293 -0.2520989945
C -2.1544886767 -2.0557783086 0.0413513311
Se -0.6903074913 0.5490562997 0.0702964117
H -0.8851246826 0.411736978 1.5237599854
H 2.2411573416 0.790903671 0.0949719997
H 1.3502895397 -2.0939443405 0.1758793901
H 0.1463688671 -2.4564257123 1.5440723677
H -0.5358828359 -1.5402737631 -1.3241687656
H -2.39054092 -1.9756377851 1.1070723012
H -2.9107447793 -1.5013676572 -0.5181496196
H -2.220959771 -3.1146207881 -0.2361116499
