13
generated by pescan.py
Se 3.4392407339 1.3079619666 0.3908403373
C 0.3948009272 -2.0058179474 0.3749637844
C -0.7759860864 -1.5148269702 -0.327933051
C -2.1197041084 -2.0683639002 0.1338857504
Se -0.7900609444 0.5899505738 -0.141744095
H -0.9660731896 0.5345180879 1.321116574
H 2.1801928686 0.5208513578 0.3970189787
H 1.3771683226 -1.9649303874 -0.081633008
H 0.3336944351 -2.2628160853 1.4282379128
H -0.6650111198 -1.5798899633 -1.4134231656
H -2.2610550965 -1.9166191481 1.2088140148
H -2.9514439648 -1.5922639327 -0.3897135014
H -2.1577627775 -3.1471596516 -0.0589325314
