13
generated by pescan.py
Se 2.3181369167 0.6936324168 0.3532178764
C 0.5612741213 -1.9550295573 -0.0182984254
C -0.7149112438 -1.4937754925 -0.4735341928
C -1.9475267533 -1.948905973 0.2951151626
Se -0.7141657806 0.7136773752 -0.3690268683
H -0.982112716 0.7172244684 1.0813760112
H 2.0006615663 0.1981245468 1.7092614426
H 1.406469199 -2.0405405332 -0.6862958563
H 0.7244476943 -2.1802669872 1.0306744065
H -0.8428120016 -1.5649215174 -1.5547270406
H -1.8360135929 -1.7679558649 1.3686902818
H -2.8522975326 -1.4428653817 -0.0491361829
H -2.0831488767 -3.0277965001 0.1541843851
