13
generated by pescan.py
Se 2.4104292122 1.0307998317 -0.0696525406
C 0.471339867 -1.9856274515 0.2483080344
C -0.727077064 -1.4720008319 -0.3671346053
C -2.0561037943 -2.003761946 0.1548319274
Se -0.7223281712 0.6641387637 -0.1099130732
H -0.7952685018 0.5681280672 1.3598076254
H 2.415353696 0.2402172657 1.1821813692
H 1.4280800222 -1.9082952763 -0.251368106
H 0.4584655509 -2.2990642686 1.2885469869
H -0.6758641046 -1.4776387469 -1.4583621721
H -2.1315951982 -1.8870523697 1.2405669648
H -2.9063070315 -1.4952815096 -0.3050380639
H -2.1311244825 -3.0739645277 -0.071273347
