13
generated by pescan.py
Se 3.3994632029 1.2486405076 0.5049872845
C 0.4128394578 -1.9771900969 0.3203284899
C -0.7860267342 -1.5155712428 -0.3546398122
C -2.1078968772 -2.0676759432 0.1675758671
Se -0.8137851017 0.5934925358 -0.2248500428
H -0.9542341025 0.5782913533 1.2432793937
H 2.1487139604 0.4501565862 0.508575633
H 1.3784079668 -1.9389498154 -0.1707493457
H 0.3891699366 -2.2103870836 1.3806789406
H -0.71122214 -1.6080067388 -1.4412464722
H -2.2141608359 -1.887028232 1.2420625188
H -2.9612122504 -1.6134343463 -0.3404178172
H -2.1420564827 -3.1517434839 0.0059133624
