13
generated by pescan.py
Se 1.6296524545 -0.0224925923 0.1222665222
C 0.7123603851 -1.0297754679 0.4446893415
C -0.6656464924 -0.9806635939 -0.3400900833
C -1.5396425351 -2.1897022799 -0.0150517389
Se -1.6735455313 0.7307545872 -0.0823326728
H -1.8643125266 0.521650545 1.3655759288
H 2.860515155 -0.4557317334 0.8384599707
H 0.9703453304 -2.0915818363 0.228265118
H 0.3347637164 -1.1352078112 1.4935999422
H -0.4438010708 -0.9527935857 -1.4131546117
H -1.7985864946 -2.2178278682 1.0479470629
H -2.4685699221 -2.1548526098 -0.5873478478
H -1.0155324685 -3.1211757533 -0.2613269319
