13
generated by pescan.py
Se 2.2900310568 0.0978040134 0.928302806
C 0.4795658895 -1.9417214583 -0.057877577
C -0.7819539301 -1.8699324816 -0.5417166107
C -2.0221318303 -2.1605492807 0.25048085
Se -0.4022591793 1.0774906585 -0.1917130603
H -1.0829927199 0.659008526 1.0510326613
H 2.5331190615 1.4777960906 1.4058945673
H 1.3327735622 -1.8129645495 -0.7120772993
H 0.6717645874 -2.213433295 0.9742533253
H -0.9215556891 -1.6735928452 -1.6036554582
H -1.8081926431 -2.2536472225 1.3191152019
H -2.7801003948 -1.3829770388 0.1102115283
H -2.470069771 -3.1026841169 -0.0907499345
