13
generated by pescan.py
Se 3.2690700578 1.0562455537 0.7096684372
C 0.4625505024 -1.891743772 0.2169117337
C -0.7908853637 -1.4951947812 -0.4001694964
C -2.0581376542 -2.0550940691 0.236505804
Se -0.8736103518 0.6134616144 -0.383749605
H -1.0088153624 0.6797445976 1.0836701411
H 2.0432577274 0.2223187763 0.7182693571
H 1.3896888593 -1.8793600072 -0.343848514
H 0.5122627081 -2.0820028669 1.2849727463
H -0.7840229683 -1.6461331834 -1.4826827721
H -2.0953707648 -1.8282724808 1.3067543931
H -2.9567047511 -1.6473380553 -0.2310799163
H -2.0712836389 -3.146037326 0.1262766913
