13
generated by pescan.py
Se 2.4212246147 1.1020410349 -0.0942833005
C 0.4586621799 -2.0142162252 0.2624949343
C -0.7283111578 -1.4825068101 -0.3600839977
C -2.0675995715 -2.0046446998 0.1452202675
Se -0.7034551518 0.6513801435 -0.0910984707
H -0.7529821115 0.5510744156 1.3795385196
H 2.4346252016 0.3072076432 1.1548237395
H 1.4221813356 -1.9346457937 -0.2245944837
H 0.4317079776 -2.3425860791 1.2977669757
H -0.6664982214 -1.4807683182 -1.4508174286
H -2.1510595908 -1.8975542857 1.2313338118
H -2.9082141478 -1.4824472273 -0.3167874372
H -2.1522813568 -3.0717367981 -0.0920151301
