13
generated by pescan.py
Se 1.6821807321 0.1404939221 0.2198226916
C 0.6493046447 -1.0484334644 0.5019905131
C -0.6692972108 -1.0016792255 -0.3230549361
C -1.565871769 -2.2012404825 -0.0262385075
Se -1.6631481275 0.7261652807 -0.0964545516
H -1.8890712567 0.5316396693 1.3485975794
H 2.9269419752 -0.538961354 0.6453350785
H 1.044193921 -2.0465763006 0.2610561668
H 0.3118255759 -1.1578734411 1.5496752086
H -0.4165877217 -0.9707014339 -1.388475728
H -1.8628483633 -2.2243948257 1.0272528809
H -2.4739117938 -2.1711145443 -0.6318518875
H -1.0357106059 -3.1367238002 -0.2461545082
