13
generated by pescan.py
Se 3.4905786572 1.4322407586 0.262818102
C 0.3610125407 -2.0698474214 0.4394467646
C -0.7674291624 -1.5316574976 -0.2958986788
C -2.1418264386 -2.0656403915 0.0924343722
Se -0.7411580626 0.5689722215 -0.0471225962
H -0.9200553526 0.4746534721 1.412548015
H 2.2157008387 0.6678903508 0.262071098
H 1.364289145 -2.0250803488 0.030991965
H 0.2502150326 -2.3509544881 1.4825844006
H -0.6122948342 -1.5652548276 -1.3773908675
H -2.3240130677 -1.9457414703 1.1651260807
H -2.9398225774 -1.5525998695 -0.4484581152
H -2.1971977187 -3.1363864881 -0.1376505405
