13
generated by pescan.py
Se 3.2149715752 0.9973200645 0.7388971743
C 0.4782318494 -1.8702909246 0.2031146501
C -0.7842134476 -1.4850281966 -0.4041798311
C -2.0414400986 -2.0485315111 0.2490471772
Se -0.8829749356 0.6217202267 -0.4081153423
H -1.0198498582 0.7034480126 1.0582331761
H 1.989309291 0.1642747859 0.7381270505
H 1.3978755561 -1.8656549343 -0.3697209828
H 0.5383975147 -2.0655659544 1.2696898495
H -0.7869785593 -1.6463154174 -1.4852477529
H -2.0694585856 -1.8149729752 1.3180969404
H -2.9470682567 -1.6495743724 -0.2124490349
H -2.0488020445 -3.1402328037 0.1460049259
