13
generated by pescan.py
Se 3.4606921863 1.3703454436 0.3016931674
C 0.377074936 -2.0410591146 0.4184266188
C -0.7672093492 -1.5207028594 -0.3062398223
C -2.1303512082 -2.0653859759 0.1065162056
Se -0.7599758067 0.5805173761 -0.0779846668
H -0.9430796263 0.4980207495 1.3821729
H 2.1890788107 0.6019974813 0.3093844305
H 1.3729424372 -1.9993998041 -0.0078544359
H 0.2831590534 -2.3176951067 1.4643228124
H -0.6265591849 -1.5648486932 -1.3893567437
H -2.2995855328 -1.9346995447 1.1801327285
H -2.9410743864 -1.5672236139 -0.4293788816
H -2.1771123291 -3.1392703379 -0.110336313
