13
generated by pescan.py
Se 1.8509172429 0.3479657315 0.1805260401
C 0.5672124115 -1.1394230193 0.5543929444
C -0.6902912372 -1.0494860281 -0.3046628655
C -1.6327388507 -2.2289679154 -0.0552978007
Se -1.6346897227 0.7040846269 -0.0816136283
H -1.8509579536 0.5285307864 1.3669133022
H 3.0336894111 -0.4548090412 0.5639739306
H 1.0918683136 -2.0742362013 0.3374192376
H 0.3168324796 -1.118734409 1.6175650548
H -0.4065597407 -1.0167337211 -1.3612959509
H -1.9644125962 -2.2597127249 0.9876316088
H -2.5195543365 -2.1620226946 -0.6894892196
H -1.1233154211 -3.1758533898 -0.2745616536
