13
generated by pescan.py
Se 3.5018621968 1.4908102628 0.1230934591
C 0.3383015296 -2.0987469519 0.5064552269
C -0.7521157947 -1.5272709346 -0.2601701698
C -2.1459022 -2.0616105437 0.0502473763
Se -0.720824292 0.565081394 0.0532206409
H -0.9157518468 0.4306097489 1.5070081173
H 2.2316798125 0.7174749568 0.1235822372
H 1.3598253798 -2.0490567776 0.1467829237
H 0.1779976566 -2.4145586696 1.5330870285
H -0.549231666 -1.5282629612 -1.3343125168
H -2.372198577 -1.9793841747 1.1179162146
H -2.9161259343 -1.5216823784 -0.5043800252
H -2.1995172642 -3.1228079708 -0.2210285129
