13
generated by pescan.py
Se 1.5571138347 0.0915295569 1.0906854282
C 0.5305265512 -2.0815206819 -0.1397504042
C -0.7606649499 -1.9217414426 -0.4528518509
C -1.9160184832 -2.2849793326 0.4337240361
Se -0.2103248671 2.0506976907 0.1493333865
H -0.9644197149 0.8792861715 -0.343440745
H 2.3541386584 1.2414656585 1.6174022127
H 1.317609371 -1.8694594412 -0.8552442385
H 0.8293810092 -2.5644533716 0.7864100045
H -1.0147341563 -1.4954754928 -1.4244140525
H -1.5749732927 -2.693796918 1.3890220105
H -2.5542233271 -1.4171810379 0.6411733211
H -2.5554106334 -3.0337723591 -0.0505471086
