12
generated by pescan.py
S 1.6903779318 -0.0002409127 0.2115029271
C -0.0924365643 3.732e-05 -0.3081236818
C -0.8048838164 -1.2729019111 0.1557709078
C -0.8045082209 1.2731649314 0.1558148758
H -0.035258203 4.8898e-05 -1.4008968684
H -1.8356536446 -1.2862954021 -0.2181135166
H -0.2941633571 -2.1685569324 -0.2060265405
H -0.8486590824 -1.3251939873 1.2494797411
H -1.8352681689 1.2868846815 -0.2180871859
H -0.2935145316 2.1686854419 -0.2059294325
H -0.8482876078 1.3254134556 1.2495229896
H 1.5321552652 -0.0002455828 1.0974857843
