12
generated by pescan.py
S 1.7027456503 -0.0002399448 0.0560081696
C -0.109743812 3.48225e-05 -0.3512596154
C -0.8039533245 -1.2726686176 0.1367163315
C -0.8035729216 1.2729270319 0.1367647615
H -0.0931372996 5.3209e-05 -1.4477021189
H -1.8497161166 -1.2854468092 -0.1935467675
H -0.3087207711 -2.1681962963 -0.245898118
H -0.8002385281 -1.3243071646 1.2312749604
H -1.849326535 1.2860448854 -0.1935170059
H -0.3080586841 2.1683220408 -0.2457957411
H -0.7998622845 1.3245093752 1.2313264111
H 1.5534856268 -0.0002315324 1.4480287327
