12
generated by pescan.py
S 1.3980743174 0.239239389 0.1825931893
C -0.1966916945 0.3640060589 -0.1722426642
C -1.0797350705 -0.8396955487 -0.3738400613
C -0.892309036 1.6927650095 -0.3151723279
H -1.5756763247 -0.7862481157 -1.351890168
H -1.8811877759 -0.8425070801 0.3774323739
H -0.5197849191 -1.7715803932 -0.3023425738
H 1.7426583506 -1.875326505 1.9729853686
H -1.3233346658 1.7828996379 -1.3210588335
H -0.2134702248 2.526277795 -0.1382306456
H -1.7335711689 1.7540124388 0.3879039845
H 1.8049282122 -2.2430426864 2.616262358
