12
generated by pescan.py
S 1.6862168875 -0.0002294365 -0.1575293294
C -0.1353072741 4.06028e-05 -0.4127578798
C -0.8026369534 -1.2728177031 0.109356217
C -0.8022598577 1.2730780508 0.1094018639
H -0.1789545273 6.67933e-05 -1.514157898
H -1.8657166956 -1.2833417984 -0.1587517049
H -0.3306314278 -2.1691779621 -0.2993218427
H -0.7280493506 -1.3174779608 1.2014825813
H -1.8653314315 1.2839440465 -0.1587268639
H -0.3299694434 2.1693128801 -0.2992225944
H -0.7276791874 1.3176611888 1.201531936
H 1.6102172612 -0.0002607013 1.9410945148
