12
generated by pescan.py
S 1.46805061 0.1563172243 0.063614555
C -0.1341115512 0.3400184364 -0.2277828151
C -1.0687229657 -0.8294517586 -0.3935653471
C -0.7851621285 1.693819017 -0.3385158846
H -1.6353354003 -0.7341608613 -1.3285955459
H -1.8099016528 -0.8283140445 0.4171324705
H -0.5357864787 -1.779598344 -0.3854155495
H 1.5051281842 -1.8776898753 2.1074446463
H -1.2643143779 1.8007537966 -1.3205901944
H -0.067039256 2.500853428 -0.1980426231
H -1.5864694462 1.7867742513 0.4064471231
H 1.443564463 -2.22852127 2.7602691648
