12
generated by pescan.py
S 1.7023548255 -0.0002385069 0.0873859683
C -0.105932468 3.42393e-05 -0.3419896269
C -0.8043260419 -1.2728703687 0.1404234675
C -0.8039473597 1.2731299015 0.1404709094
H -0.0808827968 5.16608e-05 -1.4376989582
H -1.847213651 -1.2852094864 -0.1986572526
H -0.3059307617 -2.1681893406 -0.2385828029
H -0.8102921552 -1.325643198 1.2349550468
H -1.8468252326 1.2858065427 -0.1986300256
H -0.3052701391 2.1683144781 -0.2384814729
H -0.8099174444 1.3258480737 1.2350051151
H 1.5480832248 -0.0002339954 1.378199632
