12
generated by pescan.py
S 1.7009595825 -0.000239069 0.1183971265
C -0.1024606436 3.48933e-05 -0.3340913927
C -0.8042271108 -1.2728682194 0.1442225218
C -0.803849814 1.2731292547 0.1442692921
H -0.0696963501 5.09396e-05 -1.4290575782
H -1.8446063827 -1.2855084309 -0.2024468612
H -0.3030111788 -2.1682964756 -0.2308271663
H -0.8186656458 -1.3255486121 1.2387180259
H -1.8442193628 1.2861032084 -0.202420005
H -0.3023550438 2.1684230815 -0.2307279562
H -0.8182913484 1.3257579388 1.2387672171
H 1.5403232983 -0.0002385092 1.307596776
