12
generated by pescan.py
S 1.6782751922 -0.0002200639 -0.216310603
C -0.1424434659 4.56287e-05 -0.4312481034
C -0.8015256995 -1.2730404565 0.1012132156
C -0.8011562646 1.2733071585 0.1012520865
H -0.2051422633 7.12364e-05 -1.5333890574
H -1.8693183653 -1.2823597958 -0.1469276544
H -0.3374391406 -2.1696119414 -0.3158789856
H -0.7044222285 -1.3158448928 1.1916630403
H -1.868941967 1.282959446 -0.1469080863
H -0.3367919351 2.1697562145 -0.3157946045
H -0.7040594166 1.3160383873 1.1917052825
H 1.6228625541 -0.0003029209 2.0830214697
