12
generated by pescan.py
S 1.6790736249 -0.0002404913 0.2740929249
C -0.088018625 3.55785e-05 -0.2888944413
C -0.8067282362 -1.2736541797 0.1627217632
C -0.8063514028 1.2739163613 0.1627690544
H -0.0083687581 4.34798e-05 -1.3799090512
H -1.830501206 -1.2894411329 -0.2302253644
H -0.2881734362 -2.1686314958 -0.1892641957
H -0.8713033745 -1.3255336777 1.2552609667
H -1.8301155368 1.2900281634 -0.2301909979
H -0.2875268253 2.1687552571 -0.1891713866
H -0.870926465 1.3257656698 1.2553082419
H 1.538840241 -0.0002435324 0.959902486
