12
generated by pescan.py
S 1.7012034662 -0.0002391577 -0.0063609157
C -0.1170067953 3.63536e-05 -0.3694422005
C -0.8033291896 -1.2724470508 0.1291279898
C -0.8029497898 1.272706114 0.1291756655
H -0.1176170957 5.78777e-05 -1.4674096913
H -1.8544766381 -1.2850762229 -0.1834147289
H -0.3144485764 -2.1684019929 -0.2604483656
H -0.7797669468 -1.3215956409 1.2234880936
H -1.8540879233 1.2856753382 -0.1833871378
H -0.3137865411 2.1685301683 -0.260347329
H -0.7793945978 1.321793942 1.2235390992
H 1.5655606278 -0.0002397287 1.5878785208
