12
generated by pescan.py
S 1.6863707558 -0.0002393035 0.2416388979
C -0.0906287677 3.48837e-05 -0.2973252506
C -0.8062698493 -1.2734945417 0.1594175044
C -0.8058936673 1.2737578198 0.1594626447
H -0.02142317 4.81835e-05 -1.3893007021
H -1.8331421842 -1.286817791 -0.2247796291
H -0.2910532012 -2.1684862689 -0.1974145887
H -0.8610177617 -1.3261783691 1.2526020374
H -1.8327554092 1.2874067292 -0.2247534292
H -0.2904017674 2.168610856 -0.1973184668
H -0.8606432273 1.3263995528 1.2526465308
H 1.5367582495 -0.0002417508 1.0275244512
