12
generated by pescan.py
S 1.6991097759 -0.0002396244 0.1495392252
C -0.0989494937 3.58319e-05 -0.3260008612
C -0.8043415247 -1.2728811955 0.1480003662
C -0.8039671674 1.2731455818 0.1480456561
H -0.0584166959 5.09267e-05 -1.4202322849
H -1.8419607326 -1.2853653546 -0.2067075983
H -0.3002040934 -2.1684193055 -0.2228078841
H -0.8274375348 -1.3251703303 1.2423967419
H -1.8415764313 1.2859569788 -0.2066838415
H -0.2995555813 2.1685497765 -0.2227119389
H -0.8270659944 1.3253860161 1.2424450588
H 1.5342654736 -0.0002493014 1.2371173607
