11
generated by pescan.py
F 1.2889084553 0.7047906272 -0.4860192975
F -0.7639877522 1.1565603559 0.8513615595
C 0.1170495576 -0.9610115354 0.3105000562
C 1.0844250408 0.0867406616 -0.7433147765
C -1.1435762195 -0.2066740044 0.6311646633
H -0.0646701077 -1.8733583823 -0.2618372793
H 0.6821696768 -1.2061456395 1.2222193081
H 1.9612191524 -0.7678090548 -1.1127213016
H 0.3289245669 0.0426994001 -1.771293344
H -1.6809181939 -0.5242416283 1.5332658031
H -1.8388441763 -0.2027508 -0.2161253914
