11
generated by pescan.py
F 1.6307241075 0.5781065242 0.2577297464
F -1.6565185432 0.6940019024 -0.3802112523
C 0.0128583578 -0.9665247446 0.010552925
C 1.1755658945 -0.0618355044 -0.5125333653
C -1.1316175627 -0.1563036434 0.5950150022
H -0.350586893 -1.5921171486 -0.811393295
H 0.39408643 -1.6361563428 0.7951741859
H 1.8913717888 -0.7725678059 -1.0095036974
H 0.732862301 0.4983598138 -1.3768178081
H -0.7870101805 0.4654165684 1.432239596
H -1.9410357003 -0.801579619 0.9569479627
