11
generated by pescan.py
F 1.7046523013 0.7799854664 0.7314794699
F -1.7042240002 0.600757349 -0.4470472266
C -0.0315450202 -1.0340652964 -0.0475101144
C 1.027280122 -0.2394006163 -0.7217985268
C -1.0992486131 -0.1410511559 0.5683649744
H -0.4910638564 -1.6930935868 -0.8012178267
H 0.4147228947 -1.6744405357 0.7190073417
H 1.9416885744 -0.7384603175 -1.0239215102
H 0.7008370337 0.5747110788 -1.3601179314
H -0.621537872 0.547375561 1.2685293446
H -1.8708615641 -0.7335179467 1.0714320055
