11
generated by pescan.py
F 1.6992192151 0.6848544137 0.5548194466
F -1.6946762074 0.6227839812 -0.4336082689
C -0.014724437 -1.0076509759 -0.0259900805
C 1.0772980648 -0.1779021404 -0.6405318363
C -1.1144039592 -0.1473588593 0.5757043101
H -0.4400567311 -1.6569087701 -0.8031692621
H 0.4079541883 -1.6566950206 0.7484289809
H 1.9217105119 -0.7449647051 -1.0288349321
H 0.7162086024 0.5687779171 -1.3454532483
H -0.690875182 0.527892787 1.3242210723
H -1.8969530658 -0.7640316275 1.0316138184
