11
generated by pescan.py
F -1.0436510682 -1.0791385855 1.3182364423
F 0.8189456731 0.6873292657 -2.0271068226
C -0.6504934215 0.0531623268 0.6908235662
C 0.556630151 0.5565060845 0.9585377291
C -1.694144011 0.5800765225 -0.2370001367
H 0.8756878917 0.2471277243 -1.2059971864
H 0.8737056189 1.4821366243 0.4946572339
H 1.2122224959 0.0782005414 1.6762190707
H -2.5628643976 0.9306834949 0.330858051
H -1.2955886328 1.3921624697 -0.8440180133
H -2.0367522995 -0.2178414685 -0.9035059341
