11
generated by pescan.py
F -0.5205968055 -1.0170003502 -0.447194632
F 1.9411123055 -0.6111489694 -0.0661353442
C -0.7176960576 0.2189249411 0.2297783479
C 0.5009294124 0.9592551292 0.4813179325
C -2.0413705802 0.794067835 -0.1278451964
H 1.161879564 -1.0616395082 -0.3321822902
H 0.9349805135 1.607535304 -0.2782583807
H 0.9595413771 0.975006362 1.463358408
H -2.8306485436 0.0390585491 -0.0498079161
H -2.2822489646 1.6258571861 0.539138268
H -2.0521842211 1.1804875214 -1.1604601968
