11
generated by pescan.py
F -0.7553469303 -1.1562275292 0.9340778488
F 0.4712263224 -0.2963529037 -2.3565001709
C -0.5534716108 0.1584886574 0.6710231348
C 0.5149958026 0.7665218949 1.1872804939
C -1.6222355935 0.7216344961 -0.2062081205
H 0.7812937072 -0.0984783064 -1.5020052574
H 0.6857387972 1.8196373251 1.0026647115
H 1.2130997976 0.226566947 1.8156666644
H -2.6070121822 0.5448834198 0.2380223716
H -1.483222682 1.7948470568 -0.3498784564
H -1.5913674281 0.2288839421 -1.1824432196
