11
generated by pescan.py
F -0.4722172056 -1.3783796158 0.0933649745
F 1.7375020161 0.1137885658 0.0080644868
C -0.4269836726 -0.0461262423 -0.3671008383
C 0.8828269414 0.5788391756 0.2388425737
C -1.6955611485 0.6702105794 0.0379120506
H -0.3331041602 -0.1029447359 -1.4635601308
H 0.7973118276 1.6802751633 -0.0703263123
H 0.6238118346 0.6430537202 1.3510629591
H -1.7662716394 0.741570478 1.1282132703
H -1.721201095 1.6817722339 -0.3787933877
H -2.5724136984 0.1283406778 -0.325979646
