11
generated by pescan.py
F -0.0607083335 -0.9739114316 0.4811802233
F 0.4996816982 -0.8313842433 -2.1144536765
C -0.5709347631 0.3149330825 0.7051763183
C 0.3870682919 1.2191356422 1.3181378012
C -1.5957022534 0.6812523689 -0.3087694124
H 0.3948168321 -1.0902290798 -1.2227005238
H 1.166625346 1.7016923492 0.7261739226
H 0.4089645111 1.3797377991 2.3928700394
H -2.4209722258 -0.0403625646 -0.3072207628
H -1.9999552946 1.6747141937 -0.1020419895
H -1.1551838089 0.6748218836 -1.31664994
