11
generated by pescan.py
F -0.2501469713 -1.0511300587 0.507849428
F 0.8007822477 -0.5472795987 -1.8586611186
C -0.6520807323 0.2817317233 0.7022564229
C 0.4189615559 1.1369382135 1.1856162483
C -1.6855720941 0.6801668831 -0.2907901294
H 0.5319945652 -0.9835721096 -1.0772378404
H 1.1865905294 1.4974613358 0.4989163088
H 0.5412753108 1.3589803723 2.2419910672
H -2.5341630786 -0.0123099915 -0.2709799756
H -2.0491936873 1.6893999518 -0.0840250131
H -1.2547446454 0.6600142787 -1.3032313981
