11
generated by pescan.py
F -0.7905994703 -1.1553267563 0.9496886799
F 0.5398955956 -0.2321135537 -2.2444427888
C -0.567507588 0.1465765511 0.6501248175
C 0.5318611048 0.7406839554 1.1176395203
C -1.6473676658 0.71564212 -0.2089503377
H 0.7952464406 -0.0453364893 -1.3678057016
H 0.7178111073 1.7864181382 0.9069851605
H 1.2360730893 0.1994444984 1.7380791649
H -2.624272517 0.5535973999 0.2571233131
H -1.4980577523 1.7856140371 -0.3651991236
H -1.6393833442 0.2152070993 -1.1815417046
