11
generated by pescan.py
F -0.5255194929 -1.1188272692 -0.4013125881
F 1.7242800786 -0.4106646782 -0.0825858288
C -0.6806502945 0.2047724155 0.2842478774
C 0.5774687689 0.8657571027 0.4610792954
C -1.983882608 0.780386961 -0.1304731614
H 1.0133126042 -0.9999570034 -0.3447544416
H 0.9000544042 1.6156267506 -0.2609917335
H 1.0033802574 0.9595031249 1.4549221571
H -2.779808755 0.0298218243 -0.0939010602
H -2.2533400453 1.6124478786 0.5259510098
H -1.9415969174 1.1715378932 -1.1604715261
