11
generated by pescan.py
F -0.48873208 -1.3557381067 0.1311582087
F 1.8420112829 0.0804270396 -0.0914502007
C -0.4305835328 -0.0369667158 -0.3435603864
C 0.8241708016 0.6116724208 0.257518428
C -1.7162163821 0.6764671641 0.0277049022
H -0.3137014202 -0.098479538 -1.4351403423
H 0.7865315438 1.6886579782 -0.018105962
H 0.6856415515 0.5861541865 1.359616438
H -1.8099039717 0.7663507836 1.1148307016
H -1.7493690357 1.6793311915 -0.4090154048
H -2.5761487573 0.1125235964 -0.3418563822
