11
generated by pescan.py
F -0.5227311203 -1.3145326052 0.2290607235
F 2.0901535791 -0.0081159251 -0.348506775
C -0.4551383346 -0.0229176723 -0.2846131427
C 0.7015386906 0.6880696332 0.3421985527
C -1.7776384654 0.6829169876 0.0002103155
H -0.2752966238 -0.0965451431 -1.3629683978
H 0.8009057633 1.7351402145 0.0673653609
H 0.8327373837 0.4926779593 1.4037127373
H -1.9401808242 0.7900874871 1.0770349684
H -1.8036672814 1.674880544 -0.4605417233
H -2.596982767 0.0887395201 -0.4112516195
