11
generated by pescan.py
F -0.5298464258 -1.0531456539 -0.4509985665
F 1.8455219166 -0.5146077709 -0.0470923517
C -0.6995982989 0.2013957971 0.2317967692
C 0.5375912368 0.9087482325 0.4661096394
C -2.0172524441 0.7880246197 -0.1270985891
H 1.120724765 -1.0427327998 -0.3395922749
H 0.9266627559 1.6075468443 -0.273152134
H 0.9581544856 0.9757654806 1.4632417884
H -2.8157821903 0.0428837123 -0.0473110112
H -2.2487955638 1.6250037896 0.5367478356
H -2.023682237 1.1715227485 -1.1609421052
