11
generated by pescan.py
F -0.283585496 -1.0627629167 0.5103290575
F 0.854393941 -0.4968835276 -1.8013825417
C -0.6678538649 0.2759500312 0.7020780776
C 0.4239635544 1.1204241497 1.1581861419
C -1.7023056564 0.6814245469 -0.2873093413
H 0.5616948817 -0.9624516801 -1.0458684598
H 1.1852923221 1.4543381345 0.4516446127
H 0.5690827136 1.3527386211 2.2092896782
H -2.5525699514 -0.0087924602 -0.2692694045
H -2.0624579997 1.6909655869 -0.0758614957
H -1.2719514442 0.6654495145 -1.3001333249
