11
generated by pescan.py
F -0.4798937717 -1.3663623525 0.111648727
F 1.7898685076 0.09533037 -0.0387845345
C -0.4274844614 -0.0410118864 -0.3549896879
C 0.8524675448 0.5954145842 0.2461634119
C -1.7051458533 0.6734125111 0.0336282694
H -0.3225579554 -0.0995316625 -1.4490807193
H 0.7901375442 1.681491949 -0.0460202248
H 0.6526048295 0.6171607931 1.3523849998
H -1.7881893878 0.7517223658 1.1225363297
H -1.7347666937 1.681598074 -0.390955328
H -2.573340303 0.1211752542 -0.3348312435
