11
generated by pescan.py
F -0.5000164047 -0.9676936479 -0.4290957016
F 2.0712525319 -0.7736103946 -0.1195987857
C -0.7403955315 0.2531192193 0.2381620321
C 0.4557420483 1.0285917845 0.5066551537
C -2.0719898981 0.8028012686 -0.1301020194
H 1.2183093925 -1.0968723136 -0.3274031879
H 0.9273950398 1.6305881002 -0.2698239754
H 0.9564579974 0.9847889713 1.4679762763
H -2.8455016535 0.0313928284 -0.0562094859
H -2.3345696737 1.6299484222 0.5344507376
H -2.0829848484 1.1873477616 -1.1633020439
