11
generated by pescan.py
F -1.003570267 -1.123741079 1.0773216934
F 1.8847574321 0.2336119461 -1.6385222173
C -0.7406148659 0.097986768 0.5589629418
C 0.4948442333 0.5942983909 0.6479699863
C -1.9477345571 0.7093784039 -0.0691081684
H 1.1693093353 -0.0066698126 -1.08830072
H 0.7153121839 1.5829727072 0.2684673323
H 1.2753972795 0.0531437493 1.1700284823
H -2.7407290797 0.822406214 0.6781672579
H -1.7169429434 1.6878297208 -0.4930709305
H -2.3363287512 0.0591849913 -0.8602126577
