11
generated by pescan.py
F -0.1012231709 -0.9919968498 0.4877449145
F 0.5650955795 -0.7702068548 -2.0677578601
C -0.5867770427 0.3081520725 0.7032869073
C 0.3947154046 1.2028573955 1.2920025626
C -1.6148791629 0.6799954402 -0.3051946678
H 0.4210500105 -1.0675512695 -1.1936416111
H 1.1748995043 1.6620526232 0.6826178964
H 0.4339076322 1.3763177646 2.3641853936
H -2.4474096981 -0.0329347138 -0.2944566348
H -2.0071412018 1.6790573589 -0.1021734951
H -1.1785368548 0.6646570329 -1.3149124056
