11
generated by pescan.py
F -0.571789617 -1.2841327047 0.3500322368
F 2.3017107403 -0.0535987158 -0.6931300904
C -0.4773836773 -0.0147522267 -0.1986288273
C 0.6070853422 0.7363542312 0.4662745143
C -1.8297539464 0.6922053261 -0.0344759872
H -0.2128087148 -0.1077030863 -1.2581254987
H 0.7867789433 1.7648923429 0.1779817793
H 0.955069943 0.4117155255 1.4402674999
H -2.0803677569 0.818929558 1.0223855352
H -1.8234839376 1.6715605359 -0.5202888441
H -2.601354319 0.0749312139 -0.5005883178
