11
generated by pescan.py
F -0.5464003601 -1.2954559256 0.2885639803
F 2.2297771601 -0.0518570964 -0.5258343235
C -0.4687399227 -0.0157472307 -0.2420293306
C 0.6403895147 0.7228499892 0.4088719645
C -1.8108833293 0.6875863498 -0.0164824533
H -0.2453886721 -0.0951118131 -1.3114013311
H 0.7997536833 1.7554668774 0.1206197281
H 0.9026660934 0.4489145863 1.4249113428
H -2.0188146885 0.8030119918 1.0512065651
H -1.8253144279 1.6731430296 -0.4901376875
H -2.603343051 0.0776002417 -0.4565864548
