11

Cl 2.092090504 -1.0436920592 -0.3073962046
C -0.8600611588 0.6177029388 -0.3072855697
C 0.4061433453 0.9575211872 0.357979991
C -1.5269461755 -0.6745292272 0.1675814406
H -0.7290301749 0.6377285674 -1.3937663888
H -1.5133569866 1.4866786867 -0.0760703232
H 0.5452855909 0.7379617328 1.4118169764
H 1.0711848993 1.6975376586 -0.0734709853
H -1.6827750729 -0.6665237269 1.2511667782
H -2.4992473261 -0.8038312607 -0.3148610238
H -0.8876844446 -1.5249544975 -0.0809906908
