11

Cl 1.2445231092 -0.5006100304 0.4623980716
C -1.1079025347 0.7157135504 -0.1430272556
C 1.0586067917 0.353854774 0.2495013127
C -1.5608164714 -0.6652458393 0.05382194
H -1.1174780576 1.1140324516 -1.1547676335
H -1.3780291216 1.4483952804 0.6139993886
H 0.9758524682 1.3022214457 0.8918073205
H 1.2156934657 0.9518731309 -0.7191694447
H -2.2618724211 -0.803911582 0.882967459
H -1.9735845382 -1.1416982658 -0.8410551698
H -0.6793936902 -1.3530239155 0.3382240112
