11

Cl 1.7875335834 -0.610432015 -0.2222016916
C -0.7935853471 0.5607511105 -0.3235306588
C 0.5777057016 0.760973398 0.2931265782
C -1.535175635 -0.6848954549 0.1641618483
H -0.6986021309 0.5485857997 -1.4148624907
H -1.37302234 1.4616832046 -0.0724892722
H 0.5674134615 0.7149478862 1.3828391368
H 1.0619225537 1.6783836177 -0.0395622901
H -1.6671519075 -0.6660906247 1.2517758961
H -2.5275322617 -0.7488323708 -0.2921887081
H -0.9839066779 -1.5934735513 -0.0923673478
