11

Cl 2.3190589757 -1.0995397845 -0.3758477279
C -0.8825986272 0.6573008948 -0.3022049877
C 0.4598037465 0.8778775225 0.3118964376
C -1.6017595956 -0.5934103084 0.2209550727
H -0.7876441451 0.5990568319 -1.3959595834
H -1.5301804577 1.5362190133 -0.1225381777
H 0.6399897373 0.5950246823 1.3456737785
H 1.153600032 1.592364059 -0.1220246956
H -1.7237262795 -0.5478660571 1.3090738294
H -2.5976777519 -0.6957026925 -0.2218409883
H -1.0332646345 -1.4997271612 -0.0124919577
