11

Cl 1.5121863089 -0.3348335657 -0.0563878447
C -0.7581650066 0.5355987745 -0.3246772274
C 0.7630636802 0.5601894243 0.2224474787
C -1.5251908716 -0.695995039 0.1519480523
H -0.7061910575 0.5473336455 -1.4228666802
H -1.252734905 1.4572115652 -0.0007024805
H 0.5375665394 0.7829861575 1.312859195
H 1.0228001533 1.6224514354 -0.0751954146
H -1.627468861 -0.6999359244 1.2438011131
H -2.5314798294 -0.7298377128 -0.277273288
H -1.0187871507 -1.6235677606 -0.1392529038
