11

Cl 2.0331983573 -2.0269103275 -0.2667380634
C -0.9368161723 0.7457942986 -0.2722384466
C 0.2390190154 1.2542414341 0.4077711983
C -1.3452528215 -0.6949403153 0.097102795
H -0.8709995692 0.9003326035 -1.3528798214
H -1.7537005345 1.4193531037 0.0830844268
H 0.4047177993 1.0357042541 1.4596703859
H 0.9496340738 1.9157544006 -0.0791438939
H -1.4541851488 -0.811425045 1.179236612
H -2.2966151139 -0.9434824696 -0.3790388533
H -0.5534008857 -1.3728209373 -0.2421263394
