11

Cl 2.1785665887 -1.4063953181 -0.48312976
C -0.8868623709 0.6901843964 -0.2918974759
C 0.4153002772 0.9967675029 0.3687513693
C -1.5422184996 -0.6022316743 0.2132808843
H -0.7479568715 0.6351599041 -1.3804657168
H -1.59614001 1.5252810604 -0.1388249316
H 0.5902894965 0.7124643242 1.4015331325
H 1.1263796021 1.6760253853 -0.0900056644
H -1.7024130637 -0.5640524502 1.2965516728
H -2.5126978774 -0.7723504166 -0.2635823049
H -0.9066452715 -1.4692547142 0.0024797948
