11

Cl 2.1243278902 -1.1114086555 -0.3098226663
C -0.8691192298 0.6278767253 -0.304817615
C 0.388728008 0.98037588 0.3625824018
C -1.5221437957 -0.6731990045 0.1667612555
H -0.7383923688 0.6552269948 -1.3912348567
H -1.5337140132 1.4888525882 -0.0710557115
H 0.5385949811 0.7488101011 1.4121049384
H 1.0685545924 1.7003623067 -0.0788844106
H -1.6799954978 -0.6689968788 1.2499715272
H -2.4914660491 -0.8128085525 -0.3185282896
H -0.8697695173 -1.5134895047 -0.0823725732
