11

Cl 1.9873224674 -0.8520465414 -0.3040211785
C -0.8334614183 0.5904227295 -0.3145923209
C 0.4637727186 0.8864869101 0.3411895784
C -1.5372321245 -0.6771577295 0.1706468728
H -0.706582915 0.5897680615 -1.4016787805
H -1.4564452972 1.4779285023 -0.0885626113
H 0.5640961816 0.7060628451 1.4072165463
H 1.0749994747 1.691745818 -0.0519876515
H -1.6978514042 -0.6519215822 1.2536066622
H -2.5121932389 -0.7845503675 -0.3126857999
H -0.9308204441 -1.5551386458 -0.0644283171
