11

Cl 2.4114623872 -2.4881544458 -0.5092070852
C -0.9785218432 0.8038122073 -0.2595937738
C 0.2814858229 1.2531561141 0.3995258473
C -1.4298449892 -0.5988131483 0.1717076392
H -0.8619360936 0.8390684369 -1.3515486508
H -1.7934133919 1.5196127312 -0.0400553145
H 0.5190183251 0.9339516484 1.4099983863
H 0.8974398176 2.0309345131 -0.0398081318
H -1.5736954761 -0.6462855895 1.2568438954
H -2.3763514186 -0.8765397344 -0.3030987046
H -0.6800421403 -1.349140733 -0.1000651076
