11

Cl 2.0808860689 -1.9242652567 -0.2751144593
C -0.9323429685 0.7342819678 -0.2759831349
C 0.255210121 1.2220113492 0.4015323878
C -1.373842324 -0.6910570497 0.1085114259
H -0.8565823213 0.8736993423 -1.3582561787
H -1.7317234437 1.4369308877 0.0624030093
H 0.4229415681 0.9962636461 1.4513643752
H 0.9683860982 1.881510522 -0.0840106909
H -1.4895407687 -0.7909363536 1.1916733473
H -2.3290054971 -0.9246533132 -0.3674431625
H -0.598787533 -1.3921847419 -0.219976919
