11

Cl 1.59502417 -0.3976252297 -0.1127795941
C -0.7580247916 0.5381352733 -0.3252855002
C 0.7052722978 0.6238259539 0.2407442726
C -1.5282916533 -0.6926956673 0.1568178465
H -0.6985018314 0.535209358 -1.4221113572
H -1.2855606449 1.4528443489 -0.0319246173
H 0.5478147996 0.7495708066 1.333631888
H 1.0276703832 1.6451158825 -0.0500836868
H -1.635347431 -0.6889336914 1.2479758053
H -2.5328376465 -0.7225245352 -0.2765673956
H -1.0216186519 -1.6213214996 -0.1257176611
