11

Cl 2.215333908 -1.4833889101 -0.4856051388
C -0.8951814331 0.6993731777 -0.2891714887
C 0.4058715757 1.0134471973 0.3697642203
C -1.5386920928 -0.6007293228 0.2113921822
H -0.7586336655 0.6511663755 -1.3783690375
H -1.6108188334 1.52799331 -0.130336702
H 0.5862806569 0.7240644232 1.4002550121
H 1.113563854 1.695806998 -0.0896975878
H -1.7003520124 -0.5673059411 1.2946039163
H -2.5071800442 -0.7781249561 -0.2668917389
H -0.894590913 -1.4607033515 -0.0012516372
