11

Cl 2.70609438 0.2330075039 -0.9035349563
C -0.7994635811 0.4528374229 -0.315403806
C 0.4854736612 0.4656213332 0.4286574172
C -1.8161294769 -0.5250048462 0.3035842245
H -0.6139073881 0.189062649 -1.36393453
H -1.2414079505 1.4648384097 -0.3342500826
H 0.5490334635 0.4915230734 1.514982579
H 1.370916325 0.9600657488 -0.0701704873
H -2.0237861053 -0.2706963844 1.3479857727
H -2.7615345782 -0.4884479642 -0.2463120989
H -1.4396877496 -1.551208946 0.2730869678
