11

Cl 2.2414303217 -1.0538350467 -0.3838671843
C -0.86978135 0.6482894303 -0.3052588559
C 0.4733478365 0.8648503784 0.310778096
C -1.5964913532 -0.5961398435 0.2218929584
H -0.7723875654 0.5832917419 -1.3986042391
H -1.5132889542 1.5312824058 -0.1320799651
H 0.6421899562 0.5929175488 1.3501662346
H 1.1563154453 1.5984844521 -0.1089392125
H -1.7210980595 -0.5450643983 1.3095120651
H -2.5918899106 -0.6955574088 -0.2227694865
H -1.0327453668 -1.5069212598 -0.0061404107
