11

Cl 2.3748831743 -1.7846051781 -0.4937206227
C -0.928689302 0.733435296 -0.2788166759
C 0.3685501947 1.0760508296 0.3730411335
C -1.5257012621 -0.596363824 0.2023903128
H -0.8021068073 0.7121029818 -1.3702406159
H -1.6672419959 1.5364496039 -0.0960227215
H 0.5625509776 0.7834679445 1.400691364
H 1.0629640724 1.7691977252 -0.0900489487
H -1.682823995 -0.5838879739 1.2868729134
H -2.4917473633 -0.7938335009 -0.2730197055
H -0.8550376934 -1.4304149041 -0.0264294334
