11

Cl 2.3382900066 0.0093616356 -0.9130230856
C -0.754774528 0.4632146738 -0.3193678708
C 0.5305930883 0.4794385672 0.4290875491
C -1.7579974907 -0.5378971332 0.2819728983
H -0.56565419 0.2217260718 -1.3721882019
H -1.2138467465 1.4682550217 -0.3164591059
H 0.5164637499 0.5573387754 1.5203403206
H 1.3622132859 1.1307819952 0.0266239086
H -1.9788747663 -0.2986353457 1.3274208494
H -2.6996819066 -0.5156640644 -0.2745580727
H -1.3611305024 -1.5563231975 0.2448428109
