11

Cl 2.1395953079 -3.3305716063 -0.8006411481
C -0.9782543938 0.8444819921 -0.2595387017
C 0.1247798216 1.5098330197 0.4920311283
C -1.2380952315 -0.6036456779 0.1811976887
H -0.7651715279 0.8741890063 -1.3367508163
H -1.9155899412 1.4200075692 -0.1399326539
H 0.2875193719 1.2882412697 1.5428142029
H 0.6755043924 2.3407649901 0.063506692
H -1.472166477 -0.650101631 1.2506346741
H -2.0825470837 -1.0382944076 -0.3634003501
H -0.3599782386 -1.2333045242 0.0047802841
