11

Cl 2.1255707835 -1.4827606277 -0.2512986901
C -0.9082627331 0.686437913 -0.2906218584
C 0.3273821542 1.090024991 0.3710288028
C -1.460742613 -0.6804732555 0.1381938789
H -0.8122561571 0.7752554508 -1.3769007625
H -1.6334693722 1.4782877446 0.0082717382
H 0.4951789249 0.858457885 1.4189279922
H 1.0475491204 1.7442035482 -0.1100755367
H -1.5921703505 -0.7331393935 1.2232512488
H -2.4278574602 -0.8627137045 -0.3366174937
H -0.7453232969 -1.4519795515 -0.1594593195
