11

Cl 2.4373638601 -2.0174969529 -0.5424328017
C -0.9422687143 0.7526276877 -0.2749079033
C 0.3370452818 1.1334191822 0.390514113
C -1.5056657582 -0.5943287272 0.1991644913
H -0.8044060286 0.7368578144 -1.3649741526
H -1.7055793524 1.5334526327 -0.0977738837
H 0.5266552853 0.8503354689 1.4218161161
H 1.0189051736 1.8414164054 -0.0687937561
H -1.6619077839 -0.5915385944 1.2838645148
H -2.4676782889 -0.8110283139 -0.2761277433
H -0.8168636746 -1.412114603 -0.0356499946
