11

Cl 2.3273881368 -3.100966493 -0.6130837289
C -1.0002232091 0.8483392592 -0.2517257717
C 0.1959629348 1.4114428196 0.4381961195
C -1.3238088526 -0.594036859 0.1616879898
H -0.8614838047 0.9028096164 -1.3405456539
H -1.8855654503 1.4795702604 -0.048080321
H 0.4397109028 1.1104666046 1.4529709297
H 0.7389722421 2.2530662848 0.020592261
H -1.4925984604 -0.6615352037 1.2424030438
H -2.2250947633 -0.9604071338 -0.3401917348
H -0.4976626762 -1.2671491555 -0.0875211334
