11

Cl 2.4880897963 -2.334466081 -0.6088161836
C -0.9587478165 0.7784294595 -0.2706393116
C 0.2898989544 1.2157596947 0.4177579251
C -1.4708278424 -0.5919973659 0.1945403203
H -0.7995531698 0.7671220959 -1.3578488479
H -1.7588720408 1.5248753616 -0.1093897317
H 0.4721322226 0.9443165986 1.4535698686
H 0.9551628689 1.9433965975 -0.0350216982
H -1.6183174409 -0.6051268285 1.2804140718
H -2.4278919081 -0.8379620349 -0.2761710291
H -0.7554716237 -1.3827454976 -0.0536963837
