11

Cl 1.6768718416 -0.4724896045 -0.1628728618
C -0.7681149151 0.5440769315 -0.3273229703
C 0.6525846784 0.6808206915 0.2622284982
C -1.5318206837 -0.6890798609 0.1607210454
H -0.6945211504 0.5314767535 -1.4220137151
H -1.3207942828 1.453459844 -0.0599019322
H 0.5555843763 0.7257419221 1.3561250849
H 1.0392134588 1.6645392878 -0.034074151
H -1.6415748429 -0.6789692095 1.2513781929
H -2.5352765295 -0.7238872376 -0.2746604234
H -1.0165529506 -1.6140885178 -0.1149067676
