11

Cl 2.3944746669 -1.8625845207 -0.5109857404
C -0.9331728375 0.7399022719 -0.2775340838
C 0.3580140016 1.0955305901 0.3791735856
C -1.518842897 -0.5958576561 0.2013739787
H -0.8022947555 0.7200430364 -1.3684428944
H -1.680139695 1.5356332995 -0.0971139986
H 0.5500765646 0.8064769937 1.4082611897
H 1.0485566984 1.7933721567 -0.0826660205
H -1.6759003122 -0.5864328683 1.2858888733
H -2.4834231556 -0.8000783807 -0.2741832214
H -0.8417492788 -1.4244049226 -0.0290746682
