11

Cl 1.7492325067 -0.565189882 -0.2019792354
C -0.7849593229 0.5554790263 -0.3247042701
C 0.6024592382 0.7347899611 0.2827512476
C -1.5338695636 -0.686265264 0.1628977565
H -0.6974343503 0.5428034255 -1.4171429953
H -1.3562570871 1.4587242917 -0.0684925387
H 0.5641400856 0.7183666368 1.3746828927
H 1.0554274522 1.6743879437 -0.0382502716
H -1.6579279721 -0.6708493499 1.2516486273
H -2.5302783031 -0.7401089895 -0.2861013892
H -0.9949336837 -1.6005367997 -0.1006098237
