12
generated by pescan.py
C -1.7325072138 1.2730237194 0.1296898129
C -1.1002440361 0.0 -0.4289265692
Se 0.8838783475 0.0 -0.233283771
H 0.8457928414 0.0 1.8663705216
C -1.7325072138 -1.2730237194 0.1296898129
H -1.286537549 2.1711130356 -0.3035150038
H -2.8089514371 1.2824017427 -0.0836283323
H -1.6055604871 1.3212937958 1.216174266
H -1.1841097788 0.0 -1.525106667
H -2.8089514371 -1.2824017427 -0.0836283323
H -1.286537549 -2.1711130356 -0.3035150038
H -1.6055604871 -1.3212937958 1.216174266
