12
generated by pescan.py
C -1.7325484343 1.2728944218 0.1486988821
C -1.0785630134 0.0 -0.3857695944
Se 0.9023026805 0.0 -0.0791760484
H 0.7857401317 0.0 1.5165724044
C -1.7325484343 -1.2728944218 0.1486988821
H -1.2680459747 2.1703991116 -0.2658808875
H -2.7992151909 1.2841077837 -0.1097844053
H -1.6556609751 1.3249831893 1.2400836234
H -1.1203366487 0.0 -1.4813621872
H -2.7992151909 -1.2841077837 -0.1097844053
H -1.2680459747 -2.1703991116 -0.2658808875
H -1.6556609751 -1.3249831894 1.2400836234
