12
generated by pescan.py
C -1.7307095901 1.274219988 0.1063905742
C -1.126305959 0.0 -0.4812902142
Se 0.8529035559 0.0 -0.4127008862
H 0.9169565695 0.0 2.2865391128
C -1.7307095901 -1.2742199881 0.1063905742
H -1.3076047823 2.1719754595 -0.3497276842
H -2.8164015941 1.2815884008 -0.0515798691
H -1.544411454 1.3202289996 1.1843532067
H -1.2670953255 0.0 -1.5749284677
H -2.8164015941 -1.2815884008 -0.051579869
H -1.3076047824 -2.1719754595 -0.3497276842
H -1.544411454 -1.3202289996 1.1843532067
