12
generated by pescan.py
C -1.7329013553 1.273745679 0.1138089557
C -1.1175511784 0.0 -0.4626187217
Se 0.8632549855 0.0 -0.3513780058
H 0.9043397409 0.0 2.1482842203
C -1.7329013553 -1.273745679 0.1138089557
H -1.3016314005 2.1716003597 -0.3344156369
H -2.8155182372 1.2811560447 -0.0644245408
H -1.5677674814 1.3205956881 1.1951405966
H -1.2362035993 0.0 -1.5580132421
H -2.8155182371 -1.2811560447 -0.0644245408
H -1.3016314005 -2.1716003597 -0.3344156369
H -1.5677674814 -1.3205956881 1.1951405966
