12
generated by pescan.py
C -1.6784134929 1.2721399668 0.0900471814
C -1.1556496948 1.6894e-06 -0.576912423
Se 0.8024889276 5.54e-08 -0.7824042138
H 0.6301110463 -4.5424e-06 2.8134662216
C -1.6784119836 -1.2721385329 0.0900484737
H -1.3167590357 2.1745800318 -0.4075170199
H -2.7752517611 1.2794785176 0.0736736008
H -1.351491902 1.3022643278 1.1353839025
H -1.4549217576 -1.4132e-06 -1.6408394459
H -2.7752504109 -1.2794774951 0.0736752558
H -1.3167570197 -2.174579505 -0.4075150276
H -1.3514899156 -1.3022630964 1.1353854944
