12
generated by pescan.py
C -1.7326420035 1.2731502048 0.1525341611
C -1.0748078357 0.0 -0.3768247106
Se 0.9037788347 0.0 -0.0481963007
H 0.7765248612 0.0 1.4463963121
C -1.7326420033 -1.2731502047 0.1525341612
H -1.2636861604 2.1702268778 -0.2579519135
H -2.7969234964 1.2853100092 -0.1156227807
H -1.6662941235 1.3258857926 1.2446577251
H -1.1082042935 0.0 -1.472109685
H -2.7969234962 -1.2853100092 -0.1156227807
H -1.2636861602 -2.1702268777 -0.2579519135
H -1.6662941233 -1.3258857924 1.2446577251
