12
generated by pescan.py
C -1.7335257777 1.2729930538 0.1334909943
C -1.0960309797 0.0 -0.4190673943
Se 0.8875787683 0.0 -0.202660677
H 0.8423262624 0.0 1.7968269307
C -1.7335257777 -1.2729930538 0.1334909943
H -1.2831637514 2.1708775344 -0.2955908158
H -2.807780664 1.2825429174 -0.0907824168
H -1.6184211179 1.3222236069 1.2212788263
H -1.169886429 0.0 -1.5153980355
H -2.807780664 -1.2825429174 -0.0907824168
H -1.2831637514 -2.1708775344 -0.2955908158
H -1.6184211179 -1.3222236069 1.2212788263
