12
generated by pescan.py
C -1.734144306 1.2729737887 0.1449384337
C -1.0826874168 0.0 -0.3921095116
Se 0.8992270229 0.0 -0.110806609
H 0.8101557531 0.0 1.5868582126
C -1.734144306 -1.2729737887 0.1449384337
H -1.2727715161 2.1704439662 -0.2731929068
H -2.8023073426 1.2829528109 -0.1070648189
H -1.64985624 1.3253167032 1.235664238
H -1.1303335499 0.0 -1.4881319839
H -2.8023073426 -1.2829528109 -0.1070648189
H -1.2727715161 -2.1704439662 -0.2731929068
H -1.64985624 -1.3253167032 1.235664238
