12
generated by pescan.py
C -1.7341293256 1.2728900176 0.1411520205
C -1.0869934951 0.0 -0.400936164
Se 0.8962020926 0.0 -0.1416541651
H 0.8220634427 0.0 1.6568180729
C -1.7341293256 -1.2728900176 0.1411520205
H -1.2764411198 2.1706215123 -0.2804313001
H -2.804327434 1.2826155155 -0.1020157559
H -1.6399836771 1.3240511515 1.231030444
H -1.1433049271 0.0 -1.4972015609
H -2.8043274341 -1.2826155155 -0.1020157559
H -1.2764411198 -2.1706215123 -0.2804313001
H -1.6399836771 -1.3240511515 1.231030444
