12
generated by pescan.py
C -1.7322338681 1.2739813614 0.1100113576
C -1.121995469 0.0 -0.4716743579
Se 0.8580058121 0.0 -0.3815520534
H 0.914256396 0.0 2.2178392542
C -1.7322338681 -1.2739813614 0.1100113576
H -1.3047055013 2.1717762572 -0.3418908961
H -2.8163185377 1.2813815177 -0.0588360327
H -1.5572549604 1.3203891001 1.1898288721
H -1.2510350041 0.0 -1.5663474447
H -2.8163185377 -1.2813815176 -0.0588360327
H -1.3047055013 -2.1717762572 -0.3418908961
H -1.5572549604 -1.3203891001 1.1898288721
