12
generated by pescan.py
C -2.4301326085 1.2996075568 0.0944761765
C -1.7196933707 0.0 -0.0854956996
Se 3.880118807 0.0 -0.1313606335
H 3.8254672109 0.0 1.3481484223
C -2.4301326083 -1.2996075569 0.0944761775
H -1.7345885965 2.1432458844 0.1466526274
H -3.1280165439 1.5119435584 -0.7353856318
H -3.0388156833 1.3044970573 1.0092649306
H -0.7445827815 0.0 -0.5648092939
H -3.1280165429 -1.5119435581 -0.7353856319
H -1.7345885971 -2.1432458852 0.1466526264
H -3.0388156852 -1.3044970564 1.0092649299
