12
generated by pescan.py
C -2.3093686989 1.299286057 0.1040585531
C -1.6234388249 0.0 -0.1558979956
Se 3.3762466758 0.0 -0.0998185935
H 3.2039903376 0.0 1.3702997928
C -2.3093686989 -1.299286057 0.1040585531
H -1.6125894836 2.1431370885 0.076602392
H -3.0971550884 1.5117362464 -0.6411422134
H -2.8100590279 1.3036392922 1.0820108314
H -0.7202475907 0.0 -0.7611483301
H -3.0971550884 -1.5117362464 -0.6411422134
H -1.6125894836 -2.1431370885 0.076602392
H -2.8100590279 -1.3036392922 1.0820108314
