12
generated by pescan.py
C -2.2151748048 1.2988059009 0.1232166448
C -1.5168503362 0.0 -0.1050696185
Se 3.0826953504 0.0 -0.1697185493
H 2.5245841048 0.0 1.1966778769
C -2.2151748109 -1.2988059005 0.1232166444
H -1.5205970801 2.1448386789 0.1167653912
H -2.9754990795 1.5043736463 -0.6517043629
H -2.7520764478 1.3071132016 1.081894778
H -0.5855302684 0.0 -0.6657376095
H -2.9754990861 -1.5043736437 -0.6517043637
H -1.5205970892 -2.1448386807 0.11676539
H -2.7520764521 -1.3071132007 1.0818947786
