12
generated by pescan.py
C -1.9321909463 1.3028706137 0.158054836
C -1.2714100674 0.0 -0.1442098285
Se 1.8282016012 0.0 -0.1932762126
H 1.0972521593 0.0 1.0903140879
C -1.9321909463 -1.3028706137 0.158054836
H -1.2305882184 2.1405172173 0.0913434964
H -2.7609301758 1.522458271 -0.5382832003
H -2.3709944908 1.3011694642 1.1643842967
H -0.4864240305 0.0 -0.9073219043
H -2.7609301758 -1.522458271 -0.5382832003
H -1.2305882184 -2.1405172173 0.0913434964
H -2.3709944908 -1.3011694642 1.1643842967
