12
generated by pescan.py
C -1.8371670507 1.2965290624 0.1543850883
C -1.1714485508 -2.619e-07 -0.1686383779
Se 1.3284793422 -1.21e-07 -0.1496381253
H 0.7952060413 1.5675e-06 1.2187170073
C -1.8371675316 -1.2965293189 0.1543851087
H -1.1475335865 2.140906776 0.0513524087
H -2.7013934861 1.5014920689 -0.5017891331
H -2.2267607815 1.2890017601 1.1803381623
H -0.5483108294 -3.754e-07 -1.0725116893
H -2.7013938902 -1.5014921581 -0.5017892593
H -1.1475342946 -2.1409072446 0.0513526817
H -2.2267613821 -1.2890017549 1.1803381279
