12
generated by pescan.py
C -1.7077483668 1.2592756997 0.1602907686
C -0.9296923716 0.0 -0.3262887095
Se 0.6554404482 0.0 -0.1086790131
H 0.7047604024 0.0 1.3769592464
C -1.7077483667 -1.2592756997 0.1602907686
H -1.2705270172 2.1715885302 -0.2549394263
H -2.7649433523 1.2135812714 -0.1207122316
H -1.6508126817 1.3296835981 1.2531464653
H -1.0642456431 0.0 -1.4210626758
H -2.7649433523 -1.2135812713 -0.1207122316
H -1.2705270172 -2.1715885302 -0.2549394263
H -1.6508126817 -1.3296835981 1.2531464653
