12
generated by pescan.py
C -1.8196782347 1.2919196137 0.1385735894
C -1.3462529092 0.0 -0.4381772985
Se 1.4082900082 0.0 0.0643075321
H 1.1294039593 0.0 1.5172912545
C -1.8196782347 -1.2919196137 0.1385735894
H -1.2729902902 2.1445030198 -0.2656402151
H -2.8853425272 1.4175124702 -0.1221935002
H -1.7522556079 1.3052465722 1.2295040451
H -1.1527107382 0.0 -1.5074103264
H -2.8853425273 -1.4175124702 -0.1221935002
H -1.2729902902 -2.1445030197 -0.2656402151
H -1.7522556078 -1.3052465722 1.229504045
