12
generated by pescan.py
C -2.1114210949 1.29890632 0.1296702443
C -1.4465397583 0.0 -0.1825318595
Se 2.7516066725 0.0 -0.0577658778
H 1.9157328489 0.0 1.1662916863
C -2.1114211001 -1.298906312 0.1296702463
H -1.4204015535 2.1438481364 0.0454589924
H -2.9553234625 1.509508582 -0.5519777657
H -2.534761883 1.3044989909 1.1434572097
H -0.5987727933 0.0 -0.8627153111
H -2.9553234551 -1.5095085896 -0.5519777747
H -1.4204015498 -2.1438481228 0.045458991
H -2.534761871 -1.3044989953 1.1434572187
