12
generated by pescan.py
C -2.3481350686 1.299159897 0.1043354333
C -1.6464421041 0.0 -0.1109465722
Se 3.5535128294 0.0 -0.1325960389
H 3.374839654 0.0 1.3368011119
C -2.348135071 -1.2991598977 0.1043354326
H -1.6517955935 2.143696992 0.118710405
H -3.0882622723 1.5092764791 -0.6887839914
H -2.9083138953 1.3046233828 1.0494290764
H -0.7106907084 0.0 -0.6641433437
H -3.0882622752 -1.5092764774 -0.6887839922
H -1.6517955975 -2.1436969941 0.1187104036
H -2.9083138976 -1.3046233828 1.0494290757
