12
generated by pescan.py
C -1.8762436126 1.3016929984 0.1618354126
C -1.2114564648 -1.31e-08 -0.1382392778
Se 1.4874709911 1.15e-08 -0.2143423209
H 0.9502961097 5.98e-08 1.1520105535
C -1.8762436366 -1.3016930126 0.1618354072
H -1.172065626 2.1381206012 0.1014952421
H -2.7010374928 1.5232669931 -0.5381693392
H -2.3188460146 1.2934912885 1.1660109219
H -0.5117090357 -1.74e-08 -0.9852714018
H -2.701037519 -1.5232669926 -0.5381693462
H -1.1720656627 -2.1381206262 0.1014952313
H -2.3188460361 -1.2934913066 1.1660109174
