12
generated by pescan.py
C -1.7937947023 1.2885971133 0.1425488553
C -1.2803370462 0.0 -0.4256027132
Se 1.2772531196 0.0 0.0420835128
H 1.0193094279 0.0 1.4982582861
C -1.7937947023 -1.2885971133 0.1425488553
H -1.2705381902 2.1534716875 -0.2672705193
H -2.8619171854 1.3825126169 -0.1150984758
H -1.7204310381 1.3130924134 1.2331908387
H -1.1446662694 0.0 -1.5049824834
H -2.8619171854 -1.3825126169 -0.1150984758
H -1.2705381902 -2.1534716875 -0.2672705193
H -1.7204310381 -1.3130924134 1.2331908387
