12
generated by pescan.py
C -1.8564692659 1.2994455927 0.1578764951
C -1.1925682674 -1.377e-07 -0.1551538006
Se 1.4073161206 -1.032e-07 -0.1796841412
H 0.871096325 7.065e-07 1.1867993729
C -1.8564695518 -1.2994457089 0.157876418
H -1.1585595526 2.1392704159 0.0754251916
H -2.7020027726 1.5138999437 -0.5192735038
H -2.2712914484 1.2915933064 1.1738496825
H -0.5309816492 -1.311e-07 -1.0312138202
H -2.702003256 -1.5138997292 -0.519273438
H -1.1585601124 -2.1392707193 0.0754248683
H -2.2712915694 -1.2915934358 1.1738496755
