12
generated by pescan.py
C -1.7124746897 1.2626945982 0.1588242799
C -0.9670683614 0.0 -0.3388866871
Se 0.715099581 0.0 -0.093303383
H 0.7163036555 0.0 1.3895959924
C -1.7124746897 -1.2626945982 0.1588242799
H -1.2674613958 2.17178503 -0.2545075991
H -2.7716144739 1.2324134399 -0.1189498737
H -1.6537386124 1.3295539012 1.2516200331
H -1.0755565315 0.0 -1.4348796026
H -2.7716144739 -1.2324134399 -0.1189498737
H -1.2674613957 -2.17178503 -0.2545075991
H -1.6537386124 -1.3295539012 1.2516200331
