12
generated by pescan.py
C -1.9206041035 1.3033597513 0.1630526643
C -1.2540251947 0.0 -0.1237679177
Se 1.7440420923 0.0 -0.231444563
H 1.0603590413 0.0 1.075563778
C -1.9206041034 -1.3033597549 0.1630526668
H -1.2166964007 2.1401600391 0.1111620766
H -2.7338925078 1.5227897209 -0.5510995341
H -2.3801253402 1.3013707558 1.1599794262
H -0.4695252356 0.0 -0.8900365729
H -2.7338925073 -1.5227897239 -0.5510995327
H -1.2166964004 -2.1401600423 0.1111620799
H -2.38012534 -1.3013707566 1.1599794286
