12
generated by pescan.py
C -2.1767210964 1.2985652252 0.1218844115
C -1.4918607107 0.0 -0.1453610851
Se 2.9081235341 0.0 -0.1335860747
H 2.3526635511 0.0 1.2337300958
C -2.1767210964 -1.2985652252 0.1218844115
H -1.4836662962 2.1447280565 0.0771147831
H -2.9791394362 1.5046818815 -0.609268745
H -2.6595523662 1.3063257643 1.1089182857
H -0.5925609843 0.0 -0.7555824064
H -2.9791394362 -1.5046818815 -0.609268745
H -1.4836662962 -2.1447280565 0.0771147831
H -2.6595523662 -1.3063257643 1.1089182857
