12
generated by pescan.py
C -1.9623199532 1.3023867964 0.1570928155
C -1.3001349949 0.0 -0.1448268629
Se 1.9996680257 0.0 -0.1808828961
H 1.2127416375 0.0 1.0715610042
C -1.9623199532 -1.3023867964 0.1570928155
H -1.2613172802 2.1408795694 0.0949803504
H -2.7868459709 1.5225436991 -0.5442634293
H -2.4077485362 1.300774949 1.160522066
H -0.4975991873 0.0 -0.8860108504
H -2.7868459709 -1.5225436991 -0.5442634293
H -1.2613172802 -2.1408795694 0.0949803504
H -2.4077485362 -1.300774949 1.160522066
