10
generated by pescan.py
O 0.0002553161 -1.371429252 0.0016895814
C -1.5403e-06 -0.0714298186 0.0005914624
C 1.2955435863 0.6954442704 -0.0002308963
C -1.2958487186 0.694934056 -0.000244159
H 1.3550289855 1.3461884363 -0.881252651
H 1.3542436862 1.3499311174 0.8780464613
H 2.1359648569 0.0014748271 0.001530939
H -2.1359969932 0.0006345669 0.0015305352
H -1.3555862208 1.3456369969 -0.8812794001
H -1.3548029582 1.3494167998 0.8780191272
