10
generated by pescan.py
O 0.0002900642 -1.5574520186 0.0022620882
C -2.38471e-05 0.0425467463 0.000538712
C 1.3125154768 0.7165689951 -0.0003076996
C -1.3128279806 0.7160531391 -0.0003203408
H 1.407660232 1.3672413437 -0.8811843951
H 1.4071557442 1.370766782 0.877995079
H 2.1091990703 -0.0254983194 0.0013296069
H -2.1092192122 -0.0263275548 0.0013280006
H -1.4082247591 1.3666713167 -0.8812096933
H -1.4077247885 1.3702305698 0.877969642
