10
generated by pescan.py
O 0.0002681063 -1.4302503191 0.0018986214
C -1.01444e-05 -0.0302509703 0.0005844278
C 1.3008730116 0.7019304648 -0.0002588284
C -1.3011812043 0.7014184508 -0.0002717063
H 1.3731683181 1.3530524675 -0.8810113039
H 1.3725062783 1.3567094643 0.877814462
H 2.1254283041 -0.0098277708 0.0014476048
H -2.1254569928 -0.0106629214 0.0014470146
H -1.3737274888 1.3524951714 -0.8810371822
H -1.3730681881 1.3561879628 0.8777878901
