12
generated by pescan.py
S 2.499060284 -0.0112910904 0.9649443515
C -0.1301880172 0.0012436203 -0.2585327759
C -0.8326304302 -1.282363524 0.1691209285
C -0.8335414141 1.2846637734 0.1677455134
H 0.061721205 0.0001837804 -1.3392411082
H -1.8245766801 -1.3515969629 -0.2942227108
H -0.2632862402 -2.1692087353 -0.1240536824
H -0.974102736 -1.3139276627 1.2549462185
H -1.8254807549 1.3528629451 -0.2958604924
H -0.2648514314 2.1717569315 -0.1259913658
H -0.9744612525 1.3172471069 1.2535156881
H 0.8922324677 0.0012308175 0.1900394356
