12
generated by pescan.py
S 3.3889477427 0.0090636666 1.0921954011
C -0.5323899126 -0.002255616 -0.4121260097
C -1.0651489445 -1.3002299253 0.0984622506
C -1.0573345308 1.2981572318 0.1003979144
H -0.0131510169 -0.0031187633 -1.3686741061
H -2.0735934131 -1.5125602895 -0.2990731642
H -0.4300532106 -2.1459615775 -0.1836507193
H -1.162968593 -1.2942043333 1.1915581156
H -2.0652139881 1.5163661162 -0.2954049029
H -0.4180325208 2.140657668 -0.1818405285
H -1.1536591316 1.2916764548 1.1936430912
H 2.1124945193 0.0032103676 0.6269196578
