12
generated by pescan.py
S 2.1611262949 -0.0003261955 0.1925598767
C -0.3644380021 7.63781e-05 -0.4251170829
C -0.880452956 -1.2908919707 0.1221267082
C -0.880065285 1.2911754092 0.1221803176
H -0.1302247453 6.39888e-05 -1.4864766982
H -1.9274482057 -1.4123929097 -0.2037871833
H -0.3120307813 -2.1451529831 -0.2471678707
H -0.8788463326 -1.3017567856 1.2152871428
H -1.9270202643 1.4130051153 -0.2037396304
H -0.3113790881 2.1452786964 -0.2470721202
H -0.878469408 1.3019908473 1.2153410682
H 1.8591447734 -0.0002635905 1.5082674721
