12
generated by pescan.py
S 1.290581287 -0.0001760217 -0.0583745325
C 0.2069294885 -1.26961e-05 -0.2473164452
C -0.7863310928 -1.2816676181 0.1491520759
C -0.7859490462 1.2819239707 0.1491979086
H -0.0433830495 4.44773e-05 -1.3235661405
H -1.8102881884 -1.1907557819 -0.2224802396
H -0.320078205 -2.1951270727 -0.2351495792
H -0.7994913448 -1.3288977672 1.2444432545
H -1.809919491 1.1913468891 -0.2224794619
H -0.3193996832 2.1952603973 -0.2350345527
H -0.7991360413 1.3290928286 1.2444945807
H 1.5063653668 -0.0002316052 1.3195131318
