12
generated by pescan.py
S 4.3505304417 -0.000533776 0.0797951279
C -0.6465892794 0.0003232354 -0.0898921504
C -1.3607906157 -1.2983076901 0.0835919388
C -1.3609877549 1.2988783753 0.0833330447
H 0.3266481427 0.0003445831 -0.5743719891
H -2.0740163386 -1.4927457755 -0.737347646
H -0.6700214384 -2.1468499329 0.111257532
H -1.954429169 -1.3135250377 1.0082959657
H -2.0739334569 1.4932473305 -0.7378668631
H -0.670314876 2.1474932233 0.1112432376
H -1.9549530015 1.3140333083 1.0078251651
H 3.618756346 -0.0015548436 1.2165396368
