12
generated by pescan.py
S 2.5879284348 -0.0087693026 0.9999927816
C -0.133998906 0.0007402234 -0.2613640984
C -0.8411267505 -1.2816464164 0.1659402073
C -0.8410095055 1.2835052058 0.1649087515
H 0.0486227879 9.25671e-05 -1.3436149537
H -1.8345248953 -1.3466104018 -0.2947328304
H -0.2761001958 -2.1704958965 -0.1298091649
H -0.9795516518 -1.3148006875 1.2521178963
H -1.8344249414 1.34822098 -0.2957983103
H -0.2759555032 2.1721272379 -0.1315041256
H -0.9791255244 1.3175775564 1.2510619753
H 0.8891636513 0.0008589342 0.1852108712
