12
generated by pescan.py
S 2.8114040388 0.0012936478 0.9959481554
C -0.4064718239 -0.0004942587 -0.3807405674
C -0.9424322467 -1.2986390658 0.1304054871
C -0.9390061296 1.2988992563 0.1308556182
H 0.0518559588 -0.0008384085 -1.3690759774
H -1.9495108246 -1.5023550426 -0.273232728
H -0.3090620045 -2.1452027107 -0.151970146
H -1.0425257986 -1.2917411122 1.2224736989
H -1.9453036379 1.505706356 -0.273138939
H -0.3030476273 2.1437648276 -0.1508018458
H -1.0397407331 1.291679439 1.2228785011
H 1.5437388287 -0.0012719283 0.4588067431
