12
generated by pescan.py
S 1.7873695182 -0.2421131792 1.5331780158
C -0.1035898857 0.0400223189 -0.3733035864
C -0.6910313551 -1.2672520742 0.1596564784
C -0.7846519686 1.2967202105 0.1699098028
H -0.2032554009 0.0328108934 -1.4710982622
H -1.7438809719 -1.3449333464 -0.1352315095
H -0.1650933088 -2.1406336443 -0.2367327463
H -0.6640699331 -1.3191764015 1.2547072018
H -1.8455981975 1.3009146741 -0.1051108678
H -0.3319052688 2.2051466609 -0.2399893061
H -0.7174852567 1.3497043568 1.2601035884
H 0.993087029 0.0895895309 -0.2536778087
