12
generated by pescan.py
S 3.6496133765 0.0123800324 1.1221527627
C -0.5797829677 -0.0031209726 -0.4147162366
C -1.1210597242 -1.3007787329 0.0868633103
C -1.1112356598 1.297616478 0.0894943862
H -0.030392784 -0.0042066903 -1.3539993735
H -2.1257889564 -1.5114743784 -0.3209288349
H -0.4841959251 -2.1471939476 -0.1893707159
H -1.2304998335 -1.2969088229 1.1791465806
H -2.1153010391 1.5157069548 -0.3160668648
H -0.4691227735 2.1399907594 -0.1868743512
H -1.2188218751 1.2931051277 1.1819857769
H 2.3664861619 0.0056861924 0.6847175601
