12
generated by pescan.py
S 1.7089396717 -0.22147573 1.4978187593
C -0.0922005865 0.0385808192 -0.3591321355
C -0.6817766284 -1.2718018151 0.1667787081
C -0.7743939562 1.2976760985 0.1791516812
H -0.2172693211 0.0304499455 -1.4564358594
H -1.7323899901 -1.3439294239 -0.1375740639
H -0.1549330093 -2.1431221556 -0.2324684235
H -0.6666813079 -1.3331050103 1.2613090592
H -1.8318612703 1.3030278932 -0.1088342326
H -0.3155018367 2.2037845972 -0.2290327885
H -0.719412859 1.3542784769 1.2692107782
H 1.0073780939 0.0864373045 -0.2883814826
