12
generated by pescan.py
S 3.1337475815 0.0063360911 1.0574697715
C -0.4819649206 -0.0015927827 -0.4042279694
C -1.0110375517 -1.2997281289 0.1108241574
C -1.004814907 1.298533294 0.1121992124
H 0.0105928131 -0.002247676 -1.3751197396
H -2.0214880735 -1.5105824711 -0.2820191878
H -0.3777263127 -2.1453666729 -0.1751735431
H -1.1027689336 -1.2929667036 1.2041406736
H -2.014644268 1.5142366063 -0.2796198606
H -0.3678979118 2.1414995814 -0.1736543456
H -1.0957615842 1.2913639823 1.2055925553
H 1.8636590684 0.00131488 0.5619952759
