12
generated by pescan.py
S 1.7039292216 0.0610650112 1.2998821359
C 0.1582013728 0.0018427592 0.1966067408
C -0.6300630119 -1.283298722 0.44310275
C -0.6647343721 1.2625842073 0.4876683548
H -0.3930818329 0.0185300204 -3.1806652536
H -1.5005977482 -1.3097872658 -0.2243338656
H -0.0283637769 -2.1742333258 0.2424571827
H -0.9834237516 -1.3330717017 1.4770659545
H -1.5440108845 1.2713547536 -0.167412687
H -0.0947467622 2.1766433884 0.2991603938
H -1.0117168051 1.2751049701 1.5252262298
H 0.518507351 0.0340669052 -0.8363469362
