12
generated by pescan.py
S 3.4753172582 0.0102055168 1.1025658707
C -0.5485049183 -0.0025447124 -0.4135781076
C -1.0836283963 -1.3004081631 0.0945318101
C -1.0751240583 1.2979652751 0.0967039204
H -0.0196064861 -0.0035020173 -1.364721727
H -2.0909649307 -1.5125747425 -0.3059450261
H -0.4478830445 -2.1463126672 -0.1856862712
H -1.1848612373 -1.2948353975 1.1874109749
H -2.0818710524 1.5165142315 -0.3018401962
H -0.4348402158 2.1403776784 -0.1836558681
H -1.1746738471 1.2918821325 1.1897560111
H 2.1965369286 0.0040338657 0.6468646089
