12
generated by pescan.py
S 2.2259822989 -0.000330595 0.2022840093
C -0.3982880388 8.22933e-05 -0.4326984536
C -0.89420978 -1.2922783109 0.1201673929
C -0.8938284943 1.2925679416 0.1202165676
H -0.134267863 6.58353e-05 -1.4862977339
H -1.9379001339 -1.4324202347 -0.2113238709
H -0.3110013362 -2.1397514075 -0.2413911752
H -0.8998636363 -1.2956590911 1.2132453747
H -1.9374696852 1.4330399195 -0.2112887323
H -0.3103557957 2.1398789961 -0.2412953723
H -0.8995040449 1.2959035333 1.2132944415
H 1.9206035094 -0.0002938799 1.5174885521
