12
generated by pescan.py
S 3.5622403644 0.0114509035 1.1124910333
C -0.5643233238 -0.002862901 -0.4143577742
C -1.1023374459 -1.3006385562 0.0906489887
C -1.0930757783 1.2977921209 0.0930785166
H -0.0254130969 -0.0039347225 -1.3597802989
H -2.1084276702 -1.5122401528 -0.3132800636
H -0.4659900708 -2.1467465159 -0.1876672012
H -1.2074757843 -1.295890162 1.1832593839
H -2.0985288336 1.5163597795 -0.3087410509
H -0.4517854743 2.1401080054 -0.1853492608
H -1.1963661529 1.2924576988 1.1858848195
H 2.2813792668 0.0049455022 0.6662179076
