12
generated by pescan.py
S 1.6086753379 -0.0002279581 0.0426353006
C -0.0511283949 2.82583e-05 -0.3248583306
C -0.7934861013 -1.2673486353 0.1414371313
C -0.7931092383 1.2676059259 0.1414842085
H -0.071028237 5.03476e-05 -1.4242329955
H -1.8354397321 -1.2569774245 -0.1968632166
H -0.3105842387 -2.1699966099 -0.241840108
H -0.797622916 -1.3270584321 1.2362685184
H -1.8350599237 1.2575718122 -0.1968393063
H -0.3099231953 2.1701246951 -0.2417380967
H -0.7972518383 1.3272606013 1.2363184114
H 1.5158584778 -0.0002325807 1.3906284833
