12
generated by pescan.py
S 4.2628884643 -0.0006049349 0.096903742
C -0.632663522 0.0003061809 -0.1118303721
C -1.3410562415 -1.2983334617 0.0839437356
C -1.3412289253 1.2988833326 0.0837233011
H 0.3257570369 0.0003226331 -0.6250018556
H -2.0784085883 -1.4937611792 -0.7151707412
H -0.6495571157 -2.1467060944 0.0916541171
H -1.9069276919 -1.3127991485 1.0259045806
H -2.078338064 1.4942561256 -0.7156295561
H -0.6498034778 2.1473159136 0.0916558253
H -1.907395977 1.3132950013 1.0255046016
H 3.5266331023 -0.0013733684 1.2307456218
