12
generated by pescan.py
S 2.0976683846 -0.0003188553 0.1775375344
C -0.330887935 7.18944e-05 -0.4158527268
C -0.8679569945 -1.289105431 0.1247441433
C -0.867568988 1.289385629 0.1247984559
H -0.1243186486 6.31671e-05 -1.4835937337
H -1.9161315997 -1.3933410717 -0.2007614263
H -0.3116414832 -2.1501728922 -0.2476701271
H -0.8645871237 -1.3064019139 1.2180543644
H -1.9157094545 1.3939465071 -0.200711687
H -0.3109900613 2.1502998927 -0.2475753058
H -0.8642056111 1.3066315575 1.218109279
H 1.806225515 -0.0002544838 1.4953242297
