12
generated by pescan.py
S 1.4921923739 -0.0002056959 0.0054018124
C 0.0225716195 1.668e-05 -0.294957461
C -0.7839520607 -1.2617950334 0.1448442455
C -0.7835782867 1.2620491464 0.14488957
H -0.0490376303 4.54894e-05 -1.396344929
H -1.8221655539 -1.2209615755 -0.1986647311
H -0.3168444037 -2.1715230867 -0.2432695842
H -0.7910903013 -1.3295981153 1.2398183716
H -1.8217968782 1.2215555544 -0.1986441206
H -0.3161830916 2.1716538079 -0.2431674003
H -0.790718181 1.3297967614 1.2398666533
H 1.4905023941 -0.0002339329 1.3626275733
