12
generated by pescan.py
S 1.2643479149 -0.000170561 -0.0642795883
C 0.2799577245 -2.06959e-05 -0.2402799682
C -0.798758625 -1.3188569583 0.1458281405
C -0.7983611904 1.3191163032 0.1458786486
H -0.0768928093 4.84621e-05 -1.2792833549
H -1.8160813667 -1.2134130671 -0.2376965755
H -0.3237404013 -2.2289625677 -0.2367345388
H -0.8088133373 -1.3438877114 1.2407580096
H -1.8157067756 1.2139983426 -0.2376770745
H -0.3230603042 2.2290974976 -0.2366272887
H -0.8084357201 1.344091824 1.2408127878
H 1.5554448906 -0.0002408681 1.3217008026
