12
generated by pescan.py
S 1.4355247459 -0.0001976032 -0.0117027985
C 0.0613081924 8.7302e-06 -0.279151705
C -0.7813243092 -1.2606676952 0.1463438896
C -0.7809502932 1.2609198264 0.1463897399
H -0.0397438569 4.39092e-05 -1.379979932
H -1.8171237694 -1.2048034457 -0.2010844483
H -0.3189920162 -2.1717626381 -0.2449686656
H -0.7899944612 -1.332028709 1.2411954109
H -1.816758167 1.2053970756 -0.2010657504
H -0.3183274577 2.1718928877 -0.2448637298
H -0.7896215019 1.3322248814 1.2412449837
H 1.4859028942 -0.0002272194 1.3500430053
