13
generated by pescan.py
S 0.437377826 -1.5337107375 -0.2016815627
S -2.1398796723 -0.5928805924 0.4127052112
C 0.5957335336 0.3712514427 -0.3079709096
C -0.52097713 1.0408733024 0.4109375926
C 1.9974861568 0.7844666749 0.1492006595
H 0.4942270133 0.5205337277 -1.3872143607
H -0.4306466515 1.1374879542 1.4913030789
H -1.020855937 1.8647877545 -0.0864980533
H 2.1357662313 1.8580184678 -0.017259499
H 2.1315690566 0.5947198056 1.2193225048
H 2.7760345921 0.2446750542 -0.3986722416
H 0.7389375222 -1.6409886195 1.1081766452
H -2.955070541 -1.5242362347 -0.2033530652
