13
generated by pescan.py
S 0.3936306071 -1.5027218314 -0.2817739746
S -2.1474064207 -0.6392640201 0.514638307
C 0.6024863909 0.4192853505 -0.3303439556
C -0.5048537934 1.1045625769 0.3694160091
C 2.0027286724 0.7636126511 0.1828535057
H 0.5426126373 0.5916747646 -1.408694494
H -0.441500123 1.2226654631 1.4478867422
H -1.0942024358 1.8398787143 -0.1632387634
H 2.1966184855 1.8308060626 0.0317389066
H 2.0870888947 0.5602666248 1.2555936508
H 2.7755721652 0.192426648 -0.3402158515
H 0.7400196386 -1.6646692291 1.0107866605
H -2.9130937188 -1.5935267752 -0.0996517427
