13
generated by pescan.py
S 0.2999972673 -1.3777887446 -0.355146129
S -2.4087034451 -0.6897208817 0.3877996733
C 0.6643498031 0.5166151956 -0.3487795034
C -0.3933580652 1.2538098467 0.3550468736
C 2.0729125242 0.7413211176 0.2039297333
H 0.6371418537 0.7235729892 -1.4223668093
H -0.3736172888 1.3345096619 1.4365610483
H -1.2146445739 1.7071714391 -0.1821916788
H 2.3465749977 1.7957798914 0.0917854201
H 2.1189857215 0.4970767185 1.2706061505
H 2.811425763 0.1314290826 -0.3227583355
H 0.5441843397 -1.5735685437 0.9558023449
H -2.8655478972 -1.9352097725 0.1187082122
