13
generated by pescan.py
S 0.6688196793 -1.6880630289 0.2460106875
S -2.5601986668 0.013776821 -0.2474261424
C 0.5368042611 0.0904180782 -0.2555397735
C -0.6176576348 0.8159781557 0.4029637971
C 1.8518899587 0.8478990148 -0.0039764029
H 0.354279831 0.0334221052 -1.3324394439
H -0.663749059 0.7280185328 1.4868739518
H -0.7192613572 1.851109775 0.0772443641
H 1.7853187072 1.8693895837 -0.3943925373
H 2.0739528826 0.9102935272 1.0667478618
H 2.6854753815 0.3412395969 -0.4958830855
H 1.0603151658 -1.4520968428 1.5152975379
H -2.2162871495 -1.2363863188 0.1235211856
