13
generated by pescan.py
S 0.6090536832 -1.6312311274 0.0026433845
S -2.0600687419 -0.3529723845 0.2811564144
C 0.6029423434 0.2218646006 -0.2590925056
C -0.5729547004 0.8078472467 0.5069677168
C 1.9527209815 0.8574854053 0.0657663857
H 0.4007918586 0.2921640379 -1.3331670458
H -0.3578496485 0.8718967124 1.5802240083
H -0.8440630711 1.8027176662 0.1391039369
H 1.9283869579 1.9275536732 -0.1702358332
H 2.1916480354 0.755277357 1.1294125959
H 2.7583774026 0.3966090333 -0.5126115433
H 0.8111079882 -1.5932912741 1.3368519367
H -3.1803930891 -1.2309259467 -0.5780224514
