13
generated by pescan.py
S 0.3529864185 -1.4297608474 -0.3366699961
S -2.298299402 -0.6261427806 0.3349610129
C 0.6425745103 0.4734211192 -0.3422487513
C -0.4351213299 1.1870515594 0.3648960023
C 2.0475384033 0.7526594035 0.1978403332
H 0.6006860463 0.6755005006 -1.4161455045
H -0.4195318819 1.2529450443 1.447131488
H -1.1574411331 1.7835518349 -0.1747132555
H 2.2828292518 1.8156545784 0.0791567572
H 2.1114133555 0.5150205764 1.2648882285
H 2.8026172983 0.1667089278 -0.3332314677
H 0.6058762151 -1.6132199313 0.9748451167
H -2.8964257522 -1.8283929852 0.1282850363
