13
generated by pescan.py
S 0.2257724109 -1.2760029509 -0.1645671428
S -3.8154303304 -1.649332819 -0.2125087225
C 0.7019144911 0.576181172 -0.2274465927
C -0.17064268 1.3455325515 0.6742295024
C 2.1970371433 0.7542487088 0.0334692582
H 0.4690474948 0.7986348216 -1.2743727107
H 0.1297157737 1.5208088538 1.7031247269
H -1.1965341223 1.5622046431 0.3984653141
H 2.4754544649 1.8044051049 -0.1096653367
H 2.4513081945 0.4775029894 1.0619638444
H 2.7946407403 0.1388529795 -0.6427661512
H 0.443479376 -1.4388438539 1.1563564161
H -2.4660639568 -1.4891942009 -0.2072854054
