13
generated by pescan.py
S 0.6736846735 -1.7141859149 0.2175566377
S -2.3185794258 0.1285393964 -0.1813263939
C 0.5152785503 0.065212849 -0.2826471015
C -0.7122749939 0.7440173106 0.3487430355
C 1.7990423769 0.8486161675 0.0077353187
H 0.3596444721 0.0003659865 -1.3643659239
H -0.6325413182 0.7183448875 1.4412414222
H -0.712716436 1.8009178318 0.0579138148
H 1.7144941991 1.8715503476 -0.376811691
H 1.9887783464 0.9112585387 1.0850181038
H 2.6632599803 0.3729628433 -0.4614147915
H 1.0250520877 -1.4721125572 1.4977044504
H -2.1234225124 -1.1504876867 0.1996531188
