13
generated by pescan.py
S 0.3876486679 -1.420186693 -0.1720300514
S -3.6026994052 -0.9764377334 -0.0678820753
C 0.6771064301 0.4718631026 -0.2464815286
C -0.2904690519 1.1559855097 0.6263091513
C 2.14018746 0.8017586189 0.0458490143
H 0.4482700316 0.6591082736 -1.3011930156
H -0.0299061466 1.3736677612 1.6580551164
H -1.3251865948 1.2692145915 0.3235981719
H 2.31402602 1.8731871187 -0.1037710544
H 2.3962553028 0.562781392 1.0836554643
H 2.8123200915 0.2427526295 -0.6090930357
H 0.612804203 -1.5476246051 1.151446434
H -2.3006560084 -1.3410739662 -0.1994645913
