13
generated by pescan.py
S 0.4683412245 -1.556297734 -0.1722077479
S -2.108885822 -0.5527062132 0.3775660126
C 0.5929409311 0.3424631503 -0.3003040471
C -0.5416165642 0.9905006496 0.4242638244
C 1.9868803404 0.7971761514 0.1376862824
H 0.4754830269 0.4802863769 -1.3797447206
H -0.4221815813 1.095128325 1.5027698967
H -0.9867130971 1.8582628452 -0.0545567671
H 2.0945859716 1.8728378922 -0.0381759698
H 2.1385021482 0.6189832282 1.2075573713
H 2.7740777812 0.2750152042 -0.4150690904
H 0.7512726823 -1.6408036369 1.1437390003
H -2.9829850417 -1.4558492388 -0.2445260446
