13
generated by pescan.py
S 0.7003353746 -1.7567482474 0.0666421458
S -1.946922595 0.2639991242 0.0003801963
C 0.5664696534 0.0088733303 -0.381762106
C -0.9491318861 0.6357391789 0.2764665319
C 1.7508506848 0.8549612526 0.0458500611
H 0.418762573 0.0066182783 -1.468377811
H -0.5215815141 0.7778596348 1.3426484369
H -0.7173841055 1.6640775002 -0.0551016975
H 1.6508070201 1.8761809063 -0.3448859704
H 1.8019858172 0.9243182881 1.1402076292
H 2.7037898177 0.450134194 -0.3060732768
H 0.8876789104 -1.5542360501 1.3908213423
H -2.1059597505 -1.0267773903 0.4821845183
