13
generated by pescan.py
S 0.0711393404 -1.135594889 -0.1390959789
S -3.8963142143 -2.1462658828 -0.3300102134
C 0.7107781153 0.6670935854 -0.2025020171
C -0.060112418 1.5029160754 0.7316061665
C 2.222800952 0.7079961245 0.0169749092
H 0.4697068184 0.9210888257 -1.2402515862
H 0.2818023937 1.6315800595 1.7545426861
H -1.0686784755 1.8169389181 0.4879204972
H 2.5904627473 1.7272930928 -0.1452151285
H 2.4764224862 0.4188912998 1.0423509747
H 2.7435074508 0.0339710204 -0.6670023772
H 0.3169289654 -1.33156289 1.1719851587
H -2.6187451617 -1.6893453398 -0.2923040911
