13
generated by pescan.py
S 0.6854774892 -1.6582084732 0.3072553653
S -2.8104880142 -0.100327413 -0.3157093896
C 0.5664586365 0.1098728027 -0.2198816424
C -0.5278640588 0.8733081384 0.4599585348
C 1.9066483541 0.8557383584 -0.0301007641
H 0.3489524914 0.0469044049 -1.2897347015
H -0.6813409775 0.7332374745 1.5251752713
H -0.7223212642 1.8779665913 0.0944480757
H 1.8435074745 1.8701090225 -0.4377229597
H 2.1727500246 0.929947986 1.0292930137
H 2.7059396628 0.319663188 -0.547616947
H 1.1401613525 -1.4080888931 1.5522687221
H -2.3881811709 -1.3251231875 0.0613674213
