13
generated by pescan.py
S 0.1831996038 -1.3091330467 0.1001856806
S -2.7993668144 -1.2203039793 0.2017408637
C 0.6482083619 0.5311900053 -0.20802369
C -0.2283930156 1.4146997964 0.5716720774
C 2.1429467647 0.7306435988 0.0425017452
H 0.4208225401 0.601974867 -1.2769334864
H 0.0845815053 1.7579780702 1.5534982052
H -1.2591589718 1.566174014 0.2749455247
H 2.4271467204 1.7523765553 -0.2329129428
H 2.3866120774 0.5877500682 1.1004268566
H 2.7450266617 0.0329269245 -0.544084699
H 0.1987815165 -1.2482985455 1.4457033293
H -2.7107069499 -2.0729823282 -0.8397214644
