13
generated by pescan.py
S 0.2027509632 -1.3284343767 0.1043641668
S -2.7631241385 -1.1562152706 0.2048251713
C 0.6450158785 0.5180236106 -0.2089885546
C -0.2444946621 1.3903578112 0.5674146322
C 2.1370265071 0.7345906722 0.0423896961
H 0.4172408873 0.5820699055 -1.2781232124
H 0.0559429337 1.7269305618 1.5555453675
H -1.2697581145 1.5467921946 0.2565720744
H 2.4114856895 1.7570342323 -0.2400837648
H 2.3806626021 0.6022474547 1.1017242888
H 2.7467954619 0.038555127 -0.5382216609
H 0.224780618 -1.2651624152 1.4497052046
H -2.7046226263 -2.0217925075 -0.8281244089
