13
generated by pescan.py
S 0.6740352943 -1.7340627813 0.1752602685
S -2.1416439477 0.2093621173 -0.1205668804
C 0.5078726007 0.0466263564 -0.3091361775
C -0.7860795876 0.6907656346 0.3045173409
C 1.7647303796 0.8476706167 0.0277982839
H 0.3745827569 -0.0077301704 -1.3954856843
H -0.5906171885 0.7288012211 1.3957594839
H -0.7125568162 1.7528525567 0.0183073281
H 1.6683269579 1.8764417875 -0.3396207564
H 1.9246478677 0.8951744506 1.1109366215
H 2.6526481381 0.4015956522 -0.4256694877
H 1.0016325041 -1.5002929806 1.4636592414
H -2.0978789594 -1.0822044607 0.2832404182
