10
bond 1 2
O         0.0002449552   -1.3241852999    0.0013180185
C         0.0000057929   -0.1083372857    0.0005155121
C         1.2926082254    0.6906205437   -0.0001673554
C        -1.2929108585    0.6901108172   -0.0001804022
H         1.3413166585    1.3407456584   -0.8815725433
H         1.3402893814    1.3447045350    0.8783286911
H         2.1462324701    0.0117953782    0.0017279955
H        -2.1462689103    0.0109511570    0.0017291907
H        -1.3418723459    1.3401980216   -0.8815996043
H        -1.3408453688    1.3441964745    0.8783004974
