12
generated by pescan.py
S 2.1851598273 0.0432881169 0.1174725343
C -0.6226789745 0.4953260579 0.0139389385
C 0.4618669168 -0.5830658079 0.0150550943
C -2.0328371837 -0.1062400068 0.0005331594
H -0.4908920004 1.1391518301 0.8905305098
H -0.4820107829 1.136116482 -0.8655560433
H 0.3721735774 -1.214870766 0.9081311767
H 0.3666809872 -1.2407380567 -0.8537437922
H -2.2098928246 -0.725828426 0.8867590287
H -2.794946334 0.6790975063 -0.0134285853
H -2.1889010786 -0.7370736966 -0.8817536467
H 2.14887687 1.0186387667 -1.3949343742
