12
generated by pescan.py
S 2.1790955021 -0.0206532923 0.1765166316
C -0.6147291374 0.4793616909 0.0260873678
C 0.4554692375 -0.6133948237 0.0422271132
C -2.0330397751 -0.1010635204 -0.0044653623
H -0.4838710189 1.1256404921 0.9008671949
H -0.448879948 1.1123550341 -0.8548962495
H 0.3447653533 -1.2411777944 0.9386338588
H 0.3598652712 -1.2749944516 -0.8236085303
H -2.2360931536 -0.7067969764 0.8857268158
H -2.782046093 0.6960330431 -0.0413804032
H -2.1836673139 -0.7395877412 -0.8821265599
H 2.1557280758 1.1880823396 -1.540576877
