12
generated by pescan.py
S 2.1795954134 0.0072255025 0.161182925
C -0.6202183175 0.4867357214 0.0246736896
C 0.457270016 -0.5986787729 0.0334051533
C -2.0344044548 -0.1042130944 -0.0027740682
H -0.4912576186 1.1296341375 0.9022762977
H -0.4636756446 1.1254951421 -0.8536693071
H 0.3551474188 -1.2308380837 0.9269685568
H 0.3642212998 -1.2572549524 -0.8349381557
H -2.2264392505 -0.7205273701 0.8826150322
H -2.7899528848 0.6871820028 -0.0266261608
H -2.1858670007 -0.7352654081 -0.8856886066
H 2.1681790235 1.1143081752 -1.5044213563
