12
generated by pescan.py
S 2.1709102931 -0.1022793079 0.2544315593
C -0.6014812842 0.4582282218 0.0447120012
C 0.4478484566 -0.6552125826 0.0819994504
C -2.0302175875 -0.0929185802 -0.0138225599
H -0.4741902432 1.1045717666 0.9197852011
H -0.400116925 1.0831135942 -0.8350861411
H 0.3048030254 -1.2782647308 0.9802877533
H 0.3544881868 -1.3195943051 -0.7822082574
H -2.2700994297 -0.6811409172 0.8788747165
H -2.7599393657 0.7198926629 -0.0812222023
H -2.1724285076 -0.7399417038 -0.8866331981
H 2.1430223811 1.4073478823 -1.7381163229
