12
generated by pescan.py
S 1.2992691088 -0.1856409941 -1.7503817368
C -0.992874606 -0.1088204311 -0.1112075013
C 0.2512446255 -0.8396812758 -0.5509751953
C -1.9944317805 -1.046825374 0.5750309842
H -1.4683400313 0.3685511443 -0.9773076205
H 2.2294145142 3.5644905996 -0.6039034052
H -0.729158473 0.713067037 0.5762257965
H 0.718924719 -1.543494934 0.1383316726
H -2.8719551191 -0.4897865553 0.9181968761
H -2.3315163169 -1.831219335 -0.1089665165
H -1.5433309371 -1.5329062362 1.4468579558
H 2.1453532962 2.8360663545 -0.7288993095
