12
generated by pescan.py
S 2.0409208393 -0.1167218728 -0.1467263567
C -0.6693623692 -0.221150748 0.6246295691
C 0.481788939 -0.8467330578 -0.1235381649
C -2.0226845671 -0.7705220271 0.153543879
H -0.647462839 0.8678880626 0.4907498207
H 1.443197058 2.6883039159 -1.6940188561
H -0.5625067753 -0.3926770253 1.709156015
H 0.4716415445 -1.9212640041 -0.3080219124
H -2.8416461241 -0.3114512101 0.7162561481
H -2.180455464 -0.5677451815 -0.9096930683
H -2.0806538816 -1.854278626 0.3017076756
H 1.2798236394 3.3501517741 -1.9910467493
