12
generated by pescan.py
S 2.1886508768 0.1121190424 0.0283491186
C -0.6286754427 0.5118445285 -0.0108437065
C 0.4703156692 -0.5526382448 -0.0252280987
C -2.029743333 -0.1106993893 0.0097109074
H -0.4883075478 1.1608114151 0.8606721157
H -0.5207421244 1.1525919966 -0.8951808248
H 0.4034476567 -1.1836204464 0.8672937651
H 0.3679236944 -1.2115309593 -0.8927528013
H -2.1744228178 -0.7321601165 0.9005111866
H -2.8043531317 0.6624365547 0.0142936876
H -2.1975486703 -0.7451602945 -0.8677868066
H 2.1260541706 0.8398049136 -1.1660355432
