12
generated by pescan.py
S 2.1842931663 0.1700397465 -0.0447251309
C -0.6350731923 0.5260998593 -0.0222065033
C 0.4765592696 -0.5258420201 -0.0502604943
C -2.0275210079 -0.1147816066 0.0126809949
H -0.4930405623 1.173316806 0.8503389178
H -0.5465872488 1.1717001651 -0.9050413383
H 0.4313688549 -1.1556987744 0.8427637325
H 0.3688876145 -1.1877743114 -0.9153382167
H -2.1516373664 -0.7441153238 0.9010482139
H -2.8118459648 0.6482185711 0.0333869476
H -2.1990414813 -0.7453450348 -0.8668804905
H 2.1162379186 0.687981923 -1.0127666327
