12
generated by pescan.py
S 2.1676298376 -0.1646533694 0.3192418078
C -0.5880692 0.4445222094 0.0593476464
C 0.4439798222 -0.6849746056 0.1134830275
C -2.0233290111 -0.0862757117 -0.0231732506
H -0.4661700071 1.0897531583 0.9358869365
H -0.3630779188 1.0662149396 -0.8170073489
H 0.2688002912 -1.3043386393 1.0103084676
H 0.3539907707 -1.3504633971 -0.7505679002
H -2.28997824 -0.6665426074 0.8671254811
H -2.7390100085 0.7372863083 -0.108392056
H -2.15838247 -0.7347518012 -0.8960012892
H 2.106216134 1.5580265158 -1.8872485221
