12
generated by pescan.py
S 1.7064474355 -0.0391677004 -1.2490135112
C -0.7654229187 -0.0171760384 0.1237364296
C 0.4022244231 -0.8005580536 -0.4211584712
C -1.9685369876 -0.9201829189 0.4266394467
H -1.0588084314 0.7582300885 -0.5953211923
H 1.4545852126 3.1718022878 -1.0692095749
H -0.4741998773 0.520727886 1.0420607116
H 0.643550992 -1.7665394753 0.0234620274
H -2.8008925857 -0.3315641031 0.8252923415
H -2.3124828438 -1.4336366817 -0.4758639581
H -1.7110980824 -1.6818364124 1.1704361128
H 1.5972336638 2.4437051217 -0.9780613619
