12
generated by pescan.py
S 1.3598759527 -0.1175151038 -1.7067854526
C -0.9569840125 -0.0705544325 -0.1015606608
C 0.2835726996 -0.8027950077 -0.5499524328
C -1.9698315186 -1.0139044521 0.5602614291
H -1.4234938891 0.4296316895 -0.9595561509
H 2.0573706438 3.379626731 -0.5950671254
H -0.6899176753 0.733584554 0.6051518678
H 0.7361772585 -1.5292124624 0.1261103087
H -2.8451180763 -0.4565091594 0.9085099255
H -2.30894868 -1.7829820732 -0.1399350881
H -1.5275918275 -1.5189627947 1.4257846769
H 1.9974881248 2.6533935115 -0.7499592973
