12
generated by pescan.py
S 1.4297540529 -0.0774927615 -1.6376593033
C -0.9201741684 -0.0446496884 -0.077549528
C 0.309987658 -0.7863120366 -0.5379149373
C -1.9573801894 -0.9895609567 0.5432732202
H -1.3682031449 0.4924202908 -0.9230560705
H 1.9159209091 3.2797392645 -0.6345221331
H -0.6458182295 0.7306769974 0.6580496652
H 0.7250093183 -1.5644535874 0.1036290475
H -2.8248325761 -0.4270041149 0.9025407583
H -2.3048907993 -1.728209073 -0.1850280459
H -1.5326120014 -1.5312522737 1.3952124141
H 1.8858371708 2.5499029395 -0.7839730872
