12
generated by pescan.py
S 1.9560403158 0.101484444 -0.1368124386
C -0.7160193227 -0.2562499367 0.7016336512
C 0.4545526945 -0.7412168483 -0.1167713784
C -2.0484338189 -0.8002849225 0.1674566914
H -0.7397085564 0.840508485 0.7032655497
H 1.5836079033 2.6163032131 -1.8888266248
H -0.5956488488 -0.5557531263 1.7565843348
H 0.5170239695 -1.8002614976 -0.3691958861
H -2.882480092 -0.4593247935 0.7892617919
H -2.2250867791 -0.466364379 -0.8589387593
H -2.0541209037 -1.8956108747 0.1702881553
H 1.4628734385 3.3205692366 -2.094944087
