12
generated by pescan.py
S 1.4556051133 0.1536340498 0.5372190755
C -1.2753648417 -0.0833955256 0.6734142307
C -0.1436244904 -0.5131389224 0.1095617585
C -2.6478162109 -0.5145746017 0.2457312969
H -1.218350681 0.6346046906 1.4907381467
H 2.9034086017 2.4028281707 -2.4857369277
H 2.1437401334 -1.0056780906 0.5011403474
H -0.1571133168 -1.228733493 -0.709248834
H -3.2077917222 -0.9374064121 1.0888385821
H -3.2318785176 0.3379848205 -0.1235952092
H -2.6076132249 -1.2647108895 -0.5493919524
H 2.6993991571 1.9223872034 -1.9556685144
