12
generated by pescan.py
S 1.8972995583 0.0867817298 -1.0220445019
C -0.7005799682 0.0753428965 0.1571868471
C 0.462259909 -0.6759383558 -0.4353804822
C -1.9119730932 -0.8365383682 0.3874185484
H -0.9832459915 0.9023640213 -0.5069630115
H 1.0727079885 2.7233042102 -1.0256644434
H -0.4113671543 0.5459842139 1.1125252354
H 0.6115551116 -1.7190354525 -0.1535629162
H -2.7452188686 -0.2718615002 0.817136635
H -2.2511424256 -1.2843009266 -0.5515171864
H -1.6667760802 -1.649551399 1.079073653
H 1.3390790141 2.0072549306 -1.0352073773
