12
generated by pescan.py
S 1.2900445742 -0.2166502268 -1.7588318155
C -0.9975619122 -0.1216771369 -0.1139509907
C 0.2421795794 -0.8600639266 -0.5535669336
C -2.0015322225 -1.0520452914 0.5790043141
H -1.4730003185 0.3539309874 -0.9810460913
H 2.2651760325 3.6268002156 -0.6045834168
H -0.7284722912 0.7022479556 0.5689854962
H 0.7083933871 -1.5629675656 0.1376640826
H -2.8754833559 -0.4895404069 0.9223729526
H -2.3440449097 -1.8377228042 -0.1007829132
H -1.5502758557 -1.5366387594 1.4516004682
H 2.1771752925 2.8981269591 -0.7238621527
