12
generated by pescan.py
S 2.1874249825 0.1386790044 0.0044259467
C -0.6327835232 0.5189203284 -0.0104842704
C 0.472544444 -0.5391255939 -0.0307754031
C -2.0295837404 -0.1132316245 0.0090546314
H -0.4954368609 1.163828139 0.8645309552
H -0.5309044785 1.1653458408 -0.8913252155
H 0.4153220194 -1.1703255417 0.8616427259
H 0.3688337734 -1.1991424468 -0.8974452712
H -2.1670257248 -0.7432102738 0.8949880573
H -2.8095511406 0.6544030023 0.0227347623
H -2.1957735719 -0.7413468286 -0.8732834383
H 2.1295338211 0.7690059942 -1.1310634803
