12
generated by pescan.py
S 1.4315373457 0.1060615373 0.5972669203
C -1.3028363195 -0.1097131959 0.7016781659
C -0.1683946516 -0.5437332934 0.146598134
C -2.673898999 -0.5261831502 0.2552884828
H -1.2491576888 0.600822742 1.5257195118
H 3.0413922603 2.5282397016 -2.6189344861
H 2.1102449702 -1.0586835471 0.5586636317
H -0.178835495 -1.2522837807 -0.6783835497
H -3.2462527934 -0.9521948336 1.0884326751
H -3.2473914688 0.3341352689 -0.1126168246
H -2.6308673775 -1.269454102 -0.5461205881
H 2.8270602174 2.046788653 -2.0945900729
