12
generated by pescan.py
S 2.1740584099 0.2154751511 -0.1271325179
C -0.6365619338 0.5334886915 -0.0385835016
C 0.483019277 -0.5098140968 -0.0790190426
C -2.0242834328 -0.1162875574 0.0191036149
H -0.4861135035 1.1857057998 0.8287893493
H -0.5679382255 1.1758392811 -0.9255727562
H 0.4595923179 -1.1365113938 0.8161943058
H 0.3686024547 -1.1749592751 -0.9410389115
H -2.1323281883 -0.7426273641 0.9115656807
H -2.813082692 0.6418627865 0.0472609248
H -2.2041024087 -0.7512662911 -0.8555829802
H 2.0917379252 0.5828942682 -0.8329841656
