12
generated by pescan.py
S 1.9533596902 0.1269899394 -0.1581529729
C -0.7135509921 -0.243018424 0.692198634
C 0.4563864655 -0.7234397191 -0.1296736487
C -2.0448511505 -0.7977591024 0.1663947606
H -0.7443691566 0.8535631807 0.6897235037
H 1.5732631013 2.5598977351 -1.8632818308
H -0.5863461116 -0.5375760842 1.7477520271
H 0.5230835981 -1.7823583293 -0.3815059674
H -2.8781665384 -0.4599318661 0.7908792449
H -2.2285756195 -0.4688862923 -0.8603888065
H -2.0433565852 -1.8930818675 0.1733623727
H 1.4457222988 3.2693988298 -2.0443053167
