12
generated by pescan.py
S 2.1812650134 0.1844822185 -0.0723871008
C -0.6346770758 0.5282598862 -0.0279041617
C 0.4788075084 -0.5217480104 -0.0595773919
C -2.0257960658 -0.1149866687 0.0146373832
H -0.4898923893 1.1775453713 0.8426176964
H -0.5523202659 1.1719292954 -0.9127249947
H 0.4404020712 -1.1508840925 0.8338233391
H 0.3683940569 -1.1842762259 -0.9240075871
H -2.1451146661 -0.7423202613 0.9050201807
H -2.810929148 0.6471432132 0.0368906004
H -2.20023049 -0.7476561715 -0.8628190011
H 2.102691451 0.6563114457 -0.9505689624
