12
generated by pescan.py
S 1.3708557817 -0.0863935291 -1.6950740696
C -0.9518954729 -0.0573752298 -0.0975404945
C 0.2928158727 -0.7822293698 -0.5462696973
C -1.9629410473 -1.0084881539 0.5558607656
H -1.4177389831 0.4459582498 -0.9540628448
H 2.0211184071 3.3186116021 -0.5971136689
H -0.6902580688 0.7437017385 0.6145933718
H 0.7440534835 -1.5140492804 0.124761398
H -2.8415050189 -0.4566131846 0.9046328289
H -2.2969903508 -1.7750068451 -0.1495889095
H -1.5211616136 -1.5166378849 1.4198090565
H 1.9662450104 2.592325887 -0.7570047362
