12
generated by pescan.py
S 2.1709775838 0.2165556828 -0.1561796293
C -0.6351730186 0.5339080446 -0.0492110988
C 0.4832478142 -0.5109150449 -0.0960450617
C -2.0218101493 -0.116180735 0.024718478
H -0.4774708939 1.1909573502 0.8132188788
H -0.5744364673 1.1710017513 -0.9405631808
H 0.4652135294 -1.1381115542 0.7985787768
H 0.3620104068 -1.1742792925 -0.9585403179
H -2.1235576156 -0.731783001 0.9254421359
H -2.8101060936 0.6424994166 0.0491686871
H -2.2071283887 -0.7616597748 -0.8410979866
H 2.0808332927 0.5818071568 -0.7464896817
