12
generated by pescan.py
S 1.829242903 0.0016309361 -1.0934297316
C -0.719215509 0.0184421658 0.1505312072
C 0.4351321046 -0.7617961806 -0.4252951132
C -1.942081965 -0.8728653407 0.4024107052
H -0.9915559133 0.8334798264 -0.5321523029
H 1.2402861541 2.9877463982 -1.093960926
H -0.4231637499 0.5059005404 1.0951144309
H 0.6110348664 -1.7778284959 -0.069207151
H -2.766152586 -0.2871373537 0.8217186896
H -2.2892036119 -1.3366178465 -0.5255962305
H -1.705927138 -1.6733704367 1.111592425
H 1.434202445 2.2662197873 -1.0187260027
