12
generated by pescan.py
S 1.3202291996 -0.1245948877 -1.7315036654
C -0.9826571066 -0.0836552147 -0.1063241731
C 0.2693023725 -0.800813547 -0.5467427891
C -1.9800631473 -1.0353523152 0.5669105454
H -1.457562627 0.3986780183 -0.9699316487
H 2.1545198329 3.4405983304 -0.6013932832
H -0.7282916171 0.7331773863 0.5904855297
H 0.7387790344 -1.5072762205 0.1386435765
H -2.8635355229 -0.4880335779 0.9104917973
H -2.3080879156 -1.8168407481 -0.1248190952
H -1.5292313389 -1.5248269167 1.4369790779
H 2.0791988359 2.7127416928 -0.739794872
