12
generated by pescan.py
S 2.1883988895 0.0967914172 0.0516112698
C -0.6270718955 0.5075475502 -0.0042065105
C 0.4684526821 -0.5602519075 -0.014405283
C -2.0306975868 -0.1094292096 0.0072041926
H -0.4892544185 1.1552306995 0.8686637912
H -0.510270554 1.1482842777 -0.8873207896
H 0.3960164964 -1.192313966 0.8776027852
H 0.3687918456 -1.2177630862 -0.8831169383
H -2.1838875642 -0.7308004271 0.8966301986
H -2.8020201955 0.6670054735 0.0072219446
H -2.1955227615 -0.7425708018 -0.8718243202
H 2.1296650623 0.88207098 -1.2250583404
