12
generated by pescan.py
S 2.1744109959 -0.2377819955 0.3418804523
C -0.5601536615 0.4260550486 0.0578923953
C 0.4455792112 -0.7270909354 0.1403048828
C -2.0061759529 -0.0702672155 -0.0400605008
H -0.435045106 1.0805301918 0.9270073404
H -0.3014152844 1.0288334644 -0.8240171542
H 0.2473792222 -1.3179192002 1.0524762808
H 0.3402875802 -1.4087879534 -0.7091073175
H -2.3067880195 -0.6179388061 0.8598854744
H -2.6974293654 0.7692823111 -0.1630988474
H -2.1403203601 -0.7387425917 -0.8977480512
H 1.9522707404 1.717628682 -1.922411955
