12
generated by pescan.py
S 1.9589274347 0.0733090924 -0.1184564732
C -0.7182456577 -0.269187646 0.7099402578
C 0.452516428 -0.7608882026 -0.1046080964
C -2.0519129138 -0.8024597682 0.1684239419
H -0.7343667965 0.8277482417 0.7135078345
H 1.592539573 2.6745142308 -1.9143973601
H -0.6038226146 -0.5713049115 1.7646483974
H 0.5120278431 -1.8211571022 -0.3526862225
H -2.8866394084 -0.4568778073 0.7868211024
H -2.2208539612 -0.4652644576 -0.8581624806
H -2.0661357059 -1.8977755275 0.1688845385
H 1.4785667793 3.3731438581 -2.14091644
