12
generated by pescan.py
S 1.5864126419 0.0158484792 -1.3092007193
C -0.8396366847 -0.0469326097 0.1357761327
C 0.3550176965 -0.7865977805 -0.4122965442
C -2.0041040614 -0.9956807199 0.4503952214
H -1.1675093541 0.7130312645 -0.5847086992
H 1.7642332258 3.3310731417 -1.1305377489
H -0.5630794363 0.5061315681 1.0495378446
H 0.6654720253 -1.7154450459 0.0670667784
H -2.8566081976 -0.4393491128 0.85292632
H -2.3328316332 -1.5260449003 -0.4479239815
H -1.7112455984 -1.7441298627 1.1946608633
H 1.8164793761 2.5919005783 -1.0426954673
