12
generated by pescan.py
S 1.3087332098 -0.1545177519 -1.741461165
C -0.9882646492 -0.0960677192 -0.1084777227
C 0.2602403045 -0.8193773833 -0.548372598
C -1.9873577622 -1.0415970471 0.5709787749
H -1.4636134537 0.3833066476 -0.9735236924
H 2.1936343019 3.5023336697 -0.6033699763
H -0.7298552952 0.7236511014 0.5835134114
H 0.7292696953 -1.5242089665 0.1389747469
H -2.8683149283 -0.4900320592 0.9141947261
H -2.3191762246 -1.8246060793 -0.1171889517
H -1.5363269439 -1.5293109129 1.4419271775
H 2.1136317456 2.7742275008 -0.7341927308
