12
generated by pescan.py
S 1.621259104 -0.1246984796 0.452283793
C -1.1201181565 -0.012879319 0.527032721
C -0.0399693504 -0.6876196903 0.1253395869
C -2.5279185224 -0.3779507358 0.1552059783
H -0.9903061854 0.8673552011 1.1550241584
H 2.2276843288 2.5656658782 -2.2032318262
H 2.1728079945 -1.3329645736 0.6851383148
H -0.1284419343 -1.5697063808 -0.5043637445
H -3.144789701 -0.5283663156 1.0497183307
H -3.0035583865 0.4229456641 -0.4248913395
H -2.5633156731 -1.2929374021 -0.4429747312
H 2.2092674823 1.9749561533 -1.7512802418
