12
generated by pescan.py
S 1.9060148031 0.1173113249 -1.0232638696
C -0.6975156385 0.0921483376 0.1589849319
C 0.4689912969 -0.6480208603 -0.4381069775
C -1.9046150579 -0.8271408571 0.382016238
H -0.9842412698 0.9227344505 -0.4989240247
H 1.0290354155 2.6405392818 -1.008042586
H -0.4113636636 0.5572211948 1.1181552704
H 0.623341605 -1.6922464803 -0.1637869412
H -2.7409179429 -0.2699321032 0.815527691
H -2.2411166635 -1.2695458591 -0.5604410786
H -1.6558852122 -1.6442222285 1.0675871514
H 1.3208713278 1.9249607991 -1.0267028052
