12
generated by pescan.py
S 1.8753417114 0.0504744385 -1.0602159386
C -0.699363687 0.057953918 0.1572181218
C 0.4584946155 -0.7070212217 -0.4290776733
C -1.9201034522 -0.8419582302 0.3871193637
H -0.9720833951 0.8854142486 -0.5100304296
H 1.092967831 2.7945445551 -1.0413327645
H -0.4086858836 0.5280009793 1.1124117668
H 0.6200042716 -1.7377633437 -0.1102662857
H -2.7485024895 -0.2674771472 0.813345133
H -2.261292663 -1.2894689776 -0.5510978729
H -1.684524771 -1.654973821 1.0821231878
H 1.3603449118 2.0860796016 -1.0271946085
