11

Cl 1.0336383038 -2.4765415992 -0.7780606019
Cl 1.0020142934 1.7686279494 -0.1404008785
C -1.0514782391 0.1694860544 0.7779111867
C 0.3836133337 0.4872623397 0.7559967455
C -1.7111888736 -0.0133937538 -0.6076662958
H -1.5521497448 1.0058009261 1.3016369148
H -1.1749857369 -0.7306974257 1.3843837493
H 1.1125875949 -0.019203593 1.3804650056
H -1.2256393148 -0.855675559 -1.1090328676
H -2.7747549602 -0.2217543339 -0.4694614107
H -1.6137586563 0.8860889951 -1.2203765474
