11

Cl -1.0540037351 -2.5134338042 -0.6713589988
Cl 0.0392412977 2.3908496841 0.1115866993
C -0.66624091 0.3946912859 1.9070141676
C 0.2072773687 1.5068219635 1.6279266355
C -1.1914420885 -1.1301493449 -1.8267660408
H -1.6715538499 0.5468996994 2.3001819929
H -0.4009259378 -0.6198749554 1.6129579658
H 0.8176137666 2.0320457947 2.3531367482
H -1.0010237146 -0.2060529145 -1.282469903
H -2.1981734137 -1.131963301 -2.242089122
H -0.4528697833 -1.2698321077 -2.6147151448
