11

Cl -0.3853245253 -1.75092458 -0.4520896514
Cl -0.6431983927 2.2063868877 0.1745060264
C -0.9095347286 0.5684461621 2.3997885333
C -0.0213099894 1.0838964031 1.3894547034
C -0.9143199101 -0.9956409373 -2.0061776001
H -1.0249370751 1.0723932205 3.3578566241
H -1.5664665406 -0.2766754287 2.1960053073
H 0.9327548278 0.6544464216 1.1109233851
H -1.0879499809 0.0636115864 -1.8238566703
H -1.8294160942 -1.4888552217 -2.3307486856
H -0.1224015909 -1.1370765137 -2.7402539723
