11

Cl -0.5460096687 -1.5127794238 -0.2016748012
Cl -0.8469251262 2.2218586586 0.184924653
C -0.8904901999 0.4236667898 2.2822872795
C -0.2384840366 0.7533076937 1.0353694213
C -0.8323857511 -0.9031299474 -1.8768260174
H -0.6671199203 0.9656761307 3.201202102
H -1.7282303555 -0.2688748216 2.3031485432
H 0.8378917555 0.6865615169 0.9154842761
H -0.8863711528 0.183655565 -1.8306195085
H -1.7711874257 -1.3230285913 -2.2343580703
H -0.0027951187 -1.2269075705 -2.5035328778
