11

Cl 1.1144057259 -1.481094791 -0.2955261816
Cl 1.116116278 1.4884830974 -0.2971508851
C -1.0004543217 -0.000854534 0.6857640068
C 0.5181360071 -0.0040580586 0.5428203661
C -1.7981748096 -0.0005472065 -0.6174137319
H -1.2526206465 0.8805254154 1.2876353522
H -1.255255334 -0.8810737813 1.288551855
H 1.008452357 -0.0001678447 1.5145058554
H -1.5783258763 -0.886935416 -1.2182767612
H -2.8692891646 0.0013067278 -0.3964149626
H -1.5750902153 0.8844173913 -1.2190949132
