11

Cl 0.0829648871 -2.7134150648 -1.9608244561
Cl -0.9872138489 1.6360160943 0.2916310445
C -0.3146189401 1.6940911538 2.9241757599
C -0.2957880243 1.0191350094 1.7827855104
C -1.2083891951 -1.5635956028 -2.4848329864
H -0.7613477948 2.677872046 3.0135507879
H 0.1331291021 1.2524137925 3.8086446305
H 0.1416285508 0.0360007833 1.6560433278
H -2.1732037172 -2.0536415088 -2.3610801169
H -1.0390862511 -1.3138674375 -3.5314297673
H -1.1501747685 -0.6710062653 -1.8632657342
