11

Cl -0.7742801571 -2.3254035164 -0.6145286715
Cl -0.2871578853 2.3471095152 0.1267450013
C -0.8043017023 0.4518615938 2.0904170089
C 0.1774016089 1.309505153 1.4763421549
C -1.0951277701 -1.084550772 -1.8894345365
H -1.5051833933 0.8335760582 2.8334782877
H -0.9520662001 -0.5674340473 1.7382930462
H 1.131578278 1.5901539465 1.9072891728
H -1.1451993242 -0.1067644903 -1.4129166892
H -2.0400448199 -1.3296879136 -2.3721752544
H -0.2777216346 -1.1183605271 -2.6081045203
