11

Cl -0.6607128087 -1.4006192134 -0.0576281724
Cl -1.000081909 2.2486402365 0.1912258463
C -0.8692614331 0.347628838 2.193643726
C -0.3691087898 0.5792872673 0.8561215968
C -0.772590931 -0.84586544 -1.7762873516
H -0.3596006665 0.7421459703 3.0705954191
H -1.8623278584 -0.0693187607 2.3390896603
H 0.7088981581 0.6312269995 0.7219846288
H -0.8548070415 0.2407209954 -1.7597420809
H -1.6604558466 -1.3019900575 -2.2099368389
H 0.1279441265 -1.1718488353 -2.2936634335
