11

Cl -1.3676392828 -2.7740184842 -0.9831437822
Cl 0.085552238 2.4324168896 0.1356320781
C -0.5594825345 0.4441962945 1.9588357617
C 0.2055065471 1.6391506709 1.7018422898
C -1.237721328 -1.207845506 -1.8756166846
H -1.6041030347 0.4923196447 2.2670060423
H -0.1502029364 -0.5450708695 1.7593994708
H 0.6952007496 2.2514474454 2.4500420511
H -1.0130583105 -0.4183928654 -1.1594930189
H -2.1888847513 -1.01683063 -2.3704833322
H -0.4372653566 -1.2973705899 -2.6086148757
