11

Cl 1.1366299106 -2.2965660985 -0.6098606413
Cl 1.0437974766 1.6353618291 -0.2480875944
C -1.0469661693 0.1267823599 0.750067247
C 0.3996873983 0.4088635409 0.7120942883
C -1.7505421245 0.0176168276 -0.6120314657
H -1.4989552935 0.9526488426 1.3332990066
H -1.1770026498 -0.7887436542 1.3327986759
H 1.0946109707 -0.0064338979 1.4335626854
H -1.3062900268 -0.811589683 -1.1681258216
H -2.8142956381 -0.1753530247 -0.4540922545
H -1.6527758543 0.9374139582 -1.1942291258
