11

Cl 0.9109108162 -2.74716402 -1.278702228
Cl 0.96765838 2.0650835473 0.2747718883
C -1.0873902324 0.326965758 0.8454947789
C 0.3447189213 0.606415957 0.8267491595
C -1.6246326913 -0.1384046864 -0.5604513182
H -1.6418357337 1.2265694271 1.1383291965
H -1.2692628859 -0.4780549839 1.5647025428
H 1.0922704632 -0.1374442403 1.0925505295
H -1.1031309678 -1.0505198468 -0.8612555903
H -2.698696012 -0.3163770904 -0.4601287482
H -1.4627110576 0.6429301784 -1.3066612107
