11

Cl 1.2026100865 -2.1160059294 -0.4618785042
Cl 1.075961272 1.5298394198 -0.3251144701
C -1.040595778 0.0870673598 0.7255635938
C 0.4187747961 0.3233400669 0.6673657172
C -1.7796266398 0.0379282912 -0.6151317078
H -1.4415067242 0.9104393566 1.3477511216
H -1.186847542 -0.8357662113 1.2936246499
H 1.0750962184 0.0052729765 1.4684637467
H -1.373446328 -0.7772492528 -1.2186894688
H -2.8431010346 -0.1401444735 -0.4380570818
H -1.6794193263 0.9752803961 -1.1685025965
