11

Cl 1.1287075513 -1.5394650742 -0.3125708468
Cl 1.115015934 1.4828607281 -0.3061085175
C -1.0054462064 0.0062829485 0.6891472664
C 0.5071024638 0.0317218664 0.5563239271
C -1.7978292201 0.0039887783 -0.6171492517
H -1.271813341 0.8823618374 1.294782978
H -1.2489945865 -0.879281598 1.2877084861
H 1.0160640279 0.002361611 1.5165530602
H -1.5595819123 -0.8753824793 -1.220788299
H -2.8695410413 -0.0113728804 -0.3999917455
H -1.5857836694 0.8959242623 -1.2125080572
