11

Cl -1.3564571447 -2.7311646649 -0.9186919393
Cl 0.0740942876 2.4271740833 0.1207274515
C -0.5663340036 0.4219942226 1.9273017678
C 0.1987223379 1.6187912213 1.6792498119
C -1.2284199637 -1.1854176774 -1.8472667885
H -1.6111889537 0.4682512623 2.2348630848
H -0.1578265406 -0.565853295 1.7191320004
H 0.6879026506 2.2253805562 2.432423062
H -0.9997632208 -0.3814300854 -1.1496326283
H -2.1817921803 -1.0047546623 -2.3416134851
H -0.4310342687 -1.2929699607 -2.5810873372
