11

Cl 1.1549742329 -1.6640621062 -0.3369444557
Cl 1.1104477233 1.4741201264 -0.3264379634
C -1.0147332284 0.0204272064 0.6955792841
C 0.4857252659 0.101519057 0.582200902
C -1.7968138966 0.014986473 -0.6168839875
H -1.310092602 0.8833789574 1.3111864587
H -1.2344175339 -0.877261552 1.2832514902
H 1.0314992588 0.0108044801 1.515985494
H -1.5191128186 -0.8469434474 -1.2280636104
H -2.8686303761 -0.0397158399 -0.4076262432
H -1.6109460251 0.9227466452 -1.1968503688
