11

Cl -0.3119577811 -1.8639539987 -0.5310402692
Cl -0.5925511122 2.2469558858 0.1905193412
C -0.9241011791 0.5848221035 2.3878167798
C 0.0033735619 1.1367002804 1.4327928424
C -0.9269741564 -1.0176589563 -2.0044573971
H -1.0985606085 1.0690495161 3.3467301035
H -1.5482277039 -0.2723316767 2.1365036096
H 0.9546720043 0.6929908501 1.1633172744
H -1.0731787546 0.0323978996 -1.7564943209
H -1.8685406551 -1.4812169891 -2.2952718083
H -0.1860566154 -1.1277469148 -2.7950101554
