11

Cl -0.5084304232 -1.5900739805 -0.2737440284
Cl -0.7915495282 2.2405948694 0.1980886802
C -0.9010253475 0.4633918283 2.3183029195
C -0.1991299628 0.8241781176 1.1103516292
C -0.8518637218 -0.9330250197 -1.920380422
H -0.7495329075 1.0077377962 3.2506893706
H -1.6897260403 -0.2851764386 2.3001109253
H 0.8696438232 0.7003659143 0.9778479913
H -0.9226035843 0.1508260012 -1.8395732177
H -1.7931375797 -1.3571831811 -2.2664522873
H -0.034750728 -1.2216319073 -2.5798365606
