11

Cl 1.1706763933 -1.7909791556 -0.3654083727
Cl 1.1049776458 1.474301893 -0.3387938593
C -1.0230628024 0.0375081837 0.7030061625
C 0.4650193332 0.169943841 0.6076425099
C -1.7937374425 0.0245244214 -0.6166309451
H -1.349064975 0.8868062811 1.3265597749
H -1.2187587124 -0.8709101991 1.2811210281
H 1.046491856 0.0148921292 1.5094734161
H -1.4743367664 -0.8201929003 -1.2311183839
H -2.8642056609 -0.0716077948 -0.4167977478
H -1.6360998687 0.9457133003 -1.1836605826
