11

Cl -1.3430129494 -2.6874585932 -0.8533166085
Cl 0.0655149823 2.4247221156 0.1083357136
C -0.5733953167 0.4003489505 1.8942612619
C 0.1921971494 1.599152437 1.6582758371
C -1.219640934 -1.16484029 -1.8192460969
H -1.6180439341 0.4448709145 2.2030359561
H -0.1668309561 -0.5860760707 1.6760421291
H 0.6798547306 2.1992141046 2.4176709874
H -0.9855795525 -0.3450389775 -1.1418242221
H -2.1758123987 -0.9945034377 -2.3120187146
H -0.4273478209 -1.2903911529 -2.5558112431
