11

Cl 1.1648696641 -1.7274233631 -0.3497826753
Cl 1.1077661752 1.472846201 -0.3339495483
C -1.0190120105 0.0284356058 0.699028303
C 0.4752311784 0.1359045444 0.5948902503
C -1.7956978162 0.0201193858 -0.6167920424
H -1.3294344119 0.8845025565 1.3191221828
H -1.2265956103 -0.8749122295 1.2815954517
H 1.0391158521 0.0135640768 1.5134033656
H -1.4976385973 -0.833078809 -1.2304145647
H -2.8670140257 -0.0549712815 -0.41191074
H -1.6236913978 0.9350123128 -1.1897939827
