11

Cl 0.9381106088 -2.6743873301 -1.2391614026
Cl 0.9821445616 2.0379166133 0.2588410774
C -1.0885484348 0.3236034514 0.8426385279
C 0.3470610949 0.58668962 0.8165711217
C -1.6350876321 -0.1383899524 -0.5602132805
H -1.6312556179 1.2295157341 1.137624509
H -1.2749255099 -0.4787966499 1.5636355237
H 1.0876216566 -0.1649888558 1.0808223481
H -1.1175518895 -1.0527093525 -0.8615010046
H -2.709850808 -0.3096875802 -0.4563550359
H -1.4698190297 0.6412343021 -1.3075053843
