11

Cl -1.0971935201 -2.5775518466 -0.6939040889
Cl 0.1170850262 2.4388477656 0.1250620242
C -0.6446226465 0.3852036231 1.828059047
C 0.2060890716 1.5326261983 1.6337323736
C -1.2071178433 -1.134919159 -1.7788674482
H -1.6805429786 0.4941442081 2.1502928256
H -0.3181606461 -0.6159117684 1.5505464908
H 0.7351712879 2.0678403495 2.4137169419
H -0.9880065042 -0.2450022284 -1.1908171845
H -2.2169041148 -1.0900559166 -2.1839239361
H -0.4778961321 -1.2552192256 -2.5784920454
