11

Cl -0.2790105747 -2.9298549622 -1.9252736195
Cl 0.8267387451 2.1854228589 0.0986241229
C -0.9615549527 0.231829696 0.8541477153
C 0.2990947361 0.9074750183 1.0664970684
C -1.3395663392 -0.2641210701 -0.5804120177
H -1.7446249183 0.9867131437 1.0695219603
H -1.0635804484 -0.5694429462 1.5900118246
H 0.9942524063 0.6370144532 1.8548541536
H -0.7731053061 -1.1921244423 -0.8118801479
H -2.4088020545 -0.4837456877 -0.6013316844
H -1.1219432937 0.4908339384 -1.3393613756
