11

Cl 0.8388979099 -2.6854366909 -1.0603301599
Cl 0.9444806499 1.973664042 0.0610251885
C -1.055659157 0.2382862228 0.8168801331
C 0.3656165972 0.5868085329 0.8127461043
C -1.642647329 -0.0806893138 -0.5943053558
H -1.61876726 1.0924030047 1.227520886
H -1.1866902055 -0.6272112151 1.4710453099
H 1.1299340099 -0.0231649887 1.2854805369
H -1.1152884377 -0.9536704292 -0.9931803792
H -2.7091159221 -0.2905617155 -0.4813046833
H -1.5228638558 0.7695715509 -1.2701805806
