11

Cl -0.3887818478 -1.6956344978 -0.421909796
Cl -0.6464248221 2.1911317697 0.163752841
C -0.9096752994 0.5566126027 2.3937523061
C -0.0307322466 1.0541364653 1.3671015479
C -0.9119665523 -0.9839216651 -1.9982155363
H -1.0107049719 1.0718563012 3.347685949
H -1.577700261 -0.2835508123 2.2062502499
H 0.9328644934 0.6404161569 1.0997836767
H -1.0962878035 0.0778867767 -1.8427525012
H -1.8199485156 -1.4932786379 -2.3177707367
H -0.1127471732 -1.1356474594 -2.7222710003
