11

Cl -0.4021609881 -1.7377673875 -0.3693446292
Cl -0.682907038 2.3046434996 0.2200528726
C -0.9235388212 0.4942274468 2.3085089389
C -0.1267933228 0.9281182437 1.1886115581
C -0.8872647499 -0.9734422734 -1.9321390477
H -0.8896009178 1.0106785099 3.2680559082
H -1.6623388968 -0.2952101605 2.190521157
H 0.9378461629 0.7585335557 1.0803792562
H -0.9803027507 0.0991430976 -1.7689416412
H -1.8397767634 -1.4020665376 -2.2402216039
H -0.1152679143 -1.1868509944 -2.670077769
