11

Cl 0.1486232842 -2.7813542193 -1.7112584737
Cl 0.9729528442 1.9349716911 -0.0633597366
C -0.9843806736 0.207029199 0.8259079548
C 0.3273164438 0.8038974802 1.0024176894
C -1.4681105779 -0.2005772393 -0.58046945
H -1.6908141304 1.0032326296 1.1509473307
H -1.0919777461 -0.607371664 1.5484294986
H 0.9614224498 0.5864767725 1.8561551573
H -0.9069953174 -1.1116966394 -0.8947618903
H -2.5366212936 -0.4235310632 -0.5409104649
H -1.3035172829 0.5889250528 -1.3176986152
