11

Cl 1.0981529134 -1.4234027186 -0.2792114177
Cl 1.1161042157 1.4980820487 -0.2865119608
C -0.9957325438 -0.0078740106 0.6826024577
C 0.5282850907 -0.0411666468 0.5299082704
C -1.7979778547 -0.0053865676 -0.6178207772
H -1.2332809265 0.8789660077 1.2803741028
H -1.2616790143 -0.8825000178 1.2898718639
H 1.0019791442 -0.0036494605 1.5106468443
H -1.5962387976 -0.8989614626 -1.214941685
H -2.868269907 0.01380689 -0.3934572767
H -1.5634423201 0.8720869382 -1.2260604216
