11

Cl -0.4335863717 -1.404143973 -0.0388093645
Cl -0.9484351541 2.345656578 0.0829914144
C -0.911947858 0.3425984469 2.1169484036
C -0.2881048037 0.3852484576 0.8426166209
C -0.8073668619 -0.8154110197 -1.7264034639
H -0.3788959425 0.5983084882 3.0299511285
H -1.9754854514 0.1371087913 2.1992330298
H 0.7861605366 0.5512631363 0.8057373093
H -1.0875047755 0.2330580803 -1.6192386039
H -1.6226701846 -1.4328193584 -2.0974964035
H 0.0957308668 -0.9408606275 -2.3201250708
