11

Cl 1.0780169188 -2.4137300313 -0.7247873255
Cl 1.0180518493 1.7184423432 -0.1818248224
C -1.0507422049 0.1547611564 0.7681218295
C 0.3884696656 0.4609995353 0.7416543441
C -1.7262781713 -0.0019385674 -0.6085769896
H -1.535013626 0.9867804822 1.3145095906
H -1.1755670267 -0.751301228 1.3660400596
H 1.1050627435 -0.0125748221 1.4046102945
H -1.259264933 -0.8440496759 -1.1262610321
H -2.7910892921 -0.1994086435 -0.4640010364
H -1.6237489233 0.9020214512 -1.2140899122
