11

Cl 0.8862218181 -2.8201560212 -1.3175791209
Cl 0.9530682121 2.0914153706 0.2901490411
C -1.0873210731 0.3315636364 0.8491804415
C 0.3416058313 0.6257266342 0.8363202327
C -1.6145382664 -0.1380170963 -0.5602800713
H -1.6529474883 1.224385252 1.141112285
H -1.2637879415 -0.4770061816 1.5657930583
H 1.0954946751 -0.1120631361 1.1005936034
H -1.0879552795 -1.0474328352 -0.8599648455
H -2.687779337 -0.3228401399 -0.4642745851
H -1.4541631506 0.6444245171 -1.3056500393
