11

Cl 1.1762586673 -1.8550293734 -0.3827723009
Cl 1.1014230049 1.4789661156 -0.340609095
C -1.0269536861 0.0471896653 0.7072052835
C 0.4550790206 0.2027383704 0.6199692893
C -1.7914742893 0.0282996505 -0.6163963249
H -1.3680293345 0.8905615312 1.3326887609
H -1.2116665551 -0.8652092608 1.2821276551
H 1.053195781 0.0142323754 1.5038687505
H -1.4510679937 -0.8083686735 -1.2305819325
H -2.860754605 -0.0882962152 -0.4217389437
H -1.6481120099 0.9549148146 -1.1783681424
