11

Cl -0.3291655522 -1.9131767863 -0.5599732224
Cl -0.5840592751 2.2571203349 0.200165135
C -0.9198262417 0.5905454601 2.3917705149
C 0.0154304914 1.1680777162 1.459216168
C -0.9358578773 -1.0312249787 -2.0163406565
H -1.131447194 1.0697398844 3.3456299725
H -1.5154722702 -0.2818655745 2.1241026789
H 0.9776849199 0.7390856206 1.2034719458
H -1.0667303257 0.0163109949 -1.7493591475
H -1.8844812268 -1.476266143 -2.3130426635
H -0.1981794484 -1.1383375287 -2.8102347253
