11

Cl 1.1632105403 -2.2392564946 -0.5515054282
Cl 1.0546443048 1.5969195067 -0.2790299249
C -1.0450928718 0.1128120886 0.7410798502
C 0.4054239661 0.381684303 0.6960631688
C -1.7618915406 0.0270940824 -0.6135083521
H -1.480337052 0.9346189366 1.3425333641
H -1.1776434384 -0.8079486377 1.3152960215
H 1.0888274951 -0.001587309 1.4452233462
H -1.3291645708 -0.7958854867 -1.1875338337
H -2.8252359465 -0.1626884168 -0.449079351
H -1.6648418862 0.9542374274 -1.1841438608
