11

Cl 0.9685970078 -1.1272729117 -0.2048458472
Cl 1.1538317926 1.8195609545 -0.2526107483
C -1.000939093 -0.0838897833 0.6894974873
C 0.5317575421 -0.3993939788 0.4946994902
C -1.7866058517 -0.048910453 -0.6166337546
H -1.0817304323 0.8548682123 1.2341841445
H -1.3692263795 -0.8936454118 1.341149504
H 0.9927992114 -0.0133420155 1.4239864443
H -1.706530271 -0.9865718443 -1.1799294046
H -2.8482865583 0.1088817838 -0.4094768033
H -1.4257669682 0.7697164479 -1.2446205124
