11

Cl 0.7665310094 -2.9576649882 -1.3971810429
Cl 0.909966764 2.170674815 0.3494155126
C -1.0806733686 0.3371710217 0.8537811584
C 0.3366183882 0.6769810516 0.8599241523
C -1.5797478729 -0.1486873303 -0.5632886505
H -1.6793674655 1.2107674563 1.1374095281
H -1.2418761939 -0.4783960318 1.5663301533
H 1.1102554081 -0.0437242923 1.1129371981
H -1.0425397698 -1.0554507823 -0.8535819605
H -2.6522561388 -0.3438397015 -0.4799431775
H -1.4190107601 0.6321697817 -1.3104038714
