11

Cl 1.2052955701 -2.1797927525 -0.4928187014
Cl 1.0671173192 1.553684254 -0.3111712503
C -1.0432126555 0.0972178536 0.7311639646
C 0.411263463 0.3509313669 0.6797624737
C -1.7751499364 0.0370086874 -0.6144601951
H -1.4595032889 0.9176216511 1.347892287
H -1.1817954561 -0.8262969142 1.2998047346
H 1.0797097826 0.0030387653 1.4585670591
H -1.3607513063 -0.7801775381 -1.209993669
H -2.8384741692 -0.1450396859 -0.4409828591
H -1.6766013224 0.9718053124 -1.1723678441
