11

Cl -0.5959828696 -1.4768362507 -0.1610703258
Cl -0.9233284724 2.2201278999 0.1919111319
C -0.8776504942 0.3997142662 2.2669084893
C -0.2803635833 0.7201683513 0.9893888116
C -0.8084137469 -0.8894901999 -1.8550588332
H -0.590577184 0.9270217923 3.1762986734
H -1.7426873873 -0.2561099767 2.3231016684
H 0.7964642892 0.6932169358 0.8537903475
H -0.803435938 0.1996053401 -1.8311367945
H -1.7617162304 -1.2637564869 -2.224502652
H 0.0155856168 -1.2736546714 -2.4542265165
