13
generated by pescan.py
C 0.0711293472 0.5194354952 -0.3770018372
H 0.1272386929 0.6493471662 -1.4595103093
C 0.3597769745 1.8485946128 0.3347281422
H -0.481484093 2.5254059956 0.1315126982
H 0.3737718518 1.6853066533 1.4186642047
C 1.6581413906 2.5241541496 -0.1151804425
H 1.7835688505 3.4835985162 0.3963585343
H 2.528363865 1.9014440125 0.1079792737
H 1.6480208436 2.7211207449 -1.1930636572
Se -1.8023129933 0.0010467534 0.0605176692
H -1.7930317309 -1.3562153222 -0.786685649
Se 1.4046050367 -0.9158315439 -0.0162048008
H 0.9544139645 -1.1385072336 1.3713851737
