13
generated by pescan.py
C 0.0605338532 0.5772500618 -0.3519565716
H 0.1170816911 0.7076087839 -1.433994008
C 0.3902801323 1.9009361024 0.3643132276
H -0.439074557 2.6013557522 0.1935121728
H 0.4380538655 1.7268409206 1.4448226902
C 1.6884829827 2.5510620895 -0.1266817697
H 1.8618661071 3.4940685599 0.400933514
H 2.5469541176 1.8972747789 0.0485272128
H 1.638522547 2.7722286816 -1.1984094411
Se -1.8197341085 0.1474812411 0.1005098516
H -1.8681694638 -1.8950581206 -0.9557504563
Se 1.356306921 -0.8882106925 0.010522376
H 0.8610939119 -1.1439361588 1.3771552016
