13
generated by pescan.py
C 0.0737543944 0.5094661957 -0.3897584027
H 0.1420597073 0.6423979338 -1.4714195313
C 0.3521201344 1.8361268136 0.3280821585
H -0.4928129024 2.5078093982 0.124127181
H 0.3618017198 1.6677029812 1.4111704909
C 1.6489126312 2.5193530773 -0.1137086498
H 1.7704563605 3.4758574725 0.4042881802
H 2.521184583 1.8985480879 0.1072657956
H 1.6413618417 2.7237749733 -1.1903133154
Se -1.8019441824 -0.0327261618 0.017634164
H -1.7456230068 -1.2329589528 -0.7008846019
Se 1.4057094009 -0.9253734459 -0.0208808967
H 0.9552193186 -1.1410783731 1.3678974273
