13
generated by pescan.py
C 0.1370376465 0.9566878756 -0.7720157582
H 0.2393712559 1.4822517006 -1.7243482321
C 0.4327794279 1.8754257334 0.409869175
H -0.3941498611 2.5963393259 0.4610128285
H 0.385690066 1.2961169871 1.3386385402
C 1.7603570323 2.6338880658 0.3077930096
H 1.8728032723 3.3166670096 1.1555676854
H 2.6160366371 1.952654789 0.307431829
H 1.8073021138 3.2321412553 -0.6087854999
Se -1.5729472314 0.0042937539 -0.7178521701
H -3.0387403793 -3.2393386179 0.2922466269
Se 1.3781442806 -0.5979599803 -0.9839553751
H 1.2085137394 -1.060268898 0.4078963408
