13
generated by pescan.py
C 0.4504317308 0.9227554262 -0.6453323753
H 0.0001489135 1.4731090442 -1.4713222367
C 0.7633923269 1.8147289458 0.5449906292
H -0.1937527812 2.1588179477 0.960231261
H 1.2501952987 1.2243557113 1.3282785612
C 1.6272586127 3.0261631561 0.1710562104
H 1.8062181854 3.6562810945 1.0475112256
H 2.5986188644 2.7141599429 -0.2242702022
H 1.1357466523 3.6419475027 -0.5897837286
Se -0.5683027356 -0.7417788391 -0.2774415872
H -1.763442654 -2.3005732729 0.0991227561
Se 1.9101776789 -0.2290315185 -1.3105627935
H -2.1844970928 -2.912033141 0.24101928
