13
generated by pescan.py
C 0.1625846826 0.6845473706 -0.6692365058
H 0.3948184951 0.9761113345 -1.7684828331
C 0.3499613796 1.8230426498 0.3413741398
H -0.4766971569 2.5268315216 0.2094383415
H 0.2237986156 1.3759687954 1.3349191216
C 1.6870003883 2.5649397029 0.2653227357
H 1.7207035899 3.3467580922 1.0302801891
H 2.5313875178 1.8906118848 0.4250003854
H 1.8166446398 3.0479282049 -0.7097611743
Se -1.6207877337 0.4015197673 -1.2922209523
H -0.4211787086 -1.9242725781 0.878407581
Se 1.5467356749 -0.6122801403 -0.8224837804
H -1.0827663843 -1.6528016056 0.6509467519
