13
generated by pescan.py
C 0.4546906704 0.8617119765 -0.6218821086
H -0.0345834045 1.3862879627 -1.4422499986
C 0.7656860422 1.7713928865 0.5545819388
H -0.1937047785 2.0891962455 0.9853185107
H 1.2821508875 1.2005342457 1.3335767942
C 1.5867277238 3.0064287941 0.161421671
H 1.758597359 3.6475401359 1.0314393011
H 2.5615930371 2.7219060253 -0.2458217956
H 1.0666191769 3.6022810842 -0.5963814448
Se -0.5210330958 -0.8501927512 -0.2124744807
H -1.6857032302 -2.0605739089 0.0492913529
Se 1.9272410034 -0.2454187242 -1.3117675899
H -2.1360873913 -2.6821899722 0.1884458495
