13
generated by pescan.py
C 0.14035177 0.9653589575 -0.7750025265
H 0.2452789482 1.4913992223 -1.7267910046
C 0.4361086574 1.8825585673 0.4080328536
H -0.3888368757 2.6058519011 0.4576566094
H 0.3851327092 1.302831321 1.3363396704
C 1.7661960826 2.6371010049 0.3096243948
H 1.8782928917 3.3195182057 1.1577360351
H 2.6198346054 1.9533096724 0.3116692051
H 1.8175408755 3.235213485 -0.6068134405
Se -1.5712858657 0.0160937145 -0.7241615644
H -3.0827925142 -3.3143562547 0.3070759202
Se 1.3790132235 -0.5913908779 -0.9866094441
H 1.2073634921 -1.0545899191 0.4047422915
