13
generated by pescan.py
C 0.0665881599 0.5483289143 -0.3701446771
H 0.1298523275 0.6793773296 -1.4519609648
C 0.3741298068 1.8720007244 0.3480345318
H -0.4628533476 2.56037675 0.1653283293
H 0.4070830917 1.6989302318 1.4296279797
C 1.6709516043 2.5383850494 -0.1214854194
H 1.8238392791 3.48517396 0.4057944417
H 2.5359681204 1.8975910264 0.0691394959
H 1.6370273403 2.7565302379 -1.1946443854
Se -1.8168433863 0.0740485754 0.0606137296
H -1.7988376277 -1.6035024046 -0.8312930787
Se 1.3757483137 -0.9051943214 -0.0034022992
H 0.889544318 -1.1531460731 1.3678943166
