13
generated by pescan.py
C 0.0658784263 0.5533420943 -0.3640508699
H 0.1266933571 0.6835933183 -1.4459999812
C 0.3780991683 1.8780114345 0.3525197814
H -0.4574904261 2.5686982617 0.1721706608
H 0.4151571328 1.7059959173 1.4340756757
C 1.6746229198 2.541176599 -0.1233169268
H 1.8317091746 3.4877820159 0.4030060484
H 2.538713605 1.8981599069 0.0638256693
H 1.6360096472 2.7587840428 -1.1963703224
Se -1.8165392408 0.0918629581 0.0740463347
H -1.8221564427 -1.6696605479 -0.8730554542
Se 1.3729450322 -0.9016053879 0.0021461831
H 0.8885546463 -1.1472396131 1.3745052011
