13
generated by pescan.py
C 0.5529239904 1.0083323758 -1.0657006076
H 0.1360521102 1.742013893 -1.7555796551
C 0.6854753416 1.5545453102 0.3468520845
H -0.328840229 1.7448538463 0.7232246029
H 1.1227511257 0.7892855726 0.9964795187
C 1.5117462915 2.8454186008 0.408983413
H 1.558467577 3.2212805538 1.4353903842
H 2.5369338589 2.6784887605 0.0642782356
H 1.0702873494 3.6298318732 -0.2153006745
Se -0.3727082829 -0.7244577559 -1.2627171037
H -1.7007747743 -1.9116140259 0.7662973147
Se 2.1452600198 0.1508137477 -1.8581488715
H -2.0853793784 -2.2798907521 1.2894423588
