13
generated by pescan.py
C 0.0743113826 0.4820104958 -0.4276654045
H 0.1563509424 0.6260688515 -1.5073744757
C 0.3253552708 1.8039513825 0.3031239785
H -0.5182745649 2.467684867 0.0719933508
H 0.2967563389 1.633320634 1.3853325848
C 1.6317269779 2.4959688176 -0.0953133824
H 1.7314849353 3.4513917145 0.4293182218
H 2.5013578183 1.8804865017 0.149285947
H 1.6576864247 2.7045877556 -1.1709397814
Se -1.790469923 -0.1344711038 -0.0694132347
H -1.6874362856 -0.9232799676 -0.4903226959
Se 1.4114322539 -0.9473126476 -0.063109107
H 1.0419184287 -1.0915073011 1.3585839986
