13
generated by pescan.py
C 0.0588025775 0.5839638755 -0.3431858084
H 0.1132682456 0.7129947472 -1.4254862469
C 0.3947055877 1.9091155289 0.3699863095
H -0.4331734618 2.6117718585 0.2021269825
H 0.4485117415 1.7364436131 1.4503313637
C 1.6922676916 2.5540495229 -0.1302742137
H 1.871378245 3.4974244101 0.3947041608
H 2.5495467708 1.8977438751 0.041239172
H 1.6362644411 2.7733020128 -1.2020640822
Se -1.8192777989 0.1610798502 0.1150765515
H -1.886466383 -1.9623493244 -1.0014059831
Se 1.3536625926 -0.882680341 0.0195095957
H 0.8527087505 -1.1439566291 1.3829461989
