13
generated by pescan.py
C 0.2406113288 0.8821288321 -1.077332001
H 0.5716391706 1.525385985 -1.8963495337
C 0.1616868814 1.6501335124 0.2387821068
H -0.6709581283 2.3588823146 0.1369632889
H -0.1251616331 0.9609284561 1.0409636663
C 1.4381066467 2.4156400447 0.604008558
H 1.2836531427 2.9924510657 1.5209851946
H 2.2820008975 1.7400559058 0.7705763368
H 1.7232301121 3.1178010964 -0.1871772555
Se -1.3696844003 -0.0924321867 -1.6156486305
H -1.3196175707 -1.215539302 1.380369448
Se 1.5603271928 -0.6153503623 -1.1334139458
H 1.0563643599 -1.2711853618 0.0907737671
