13
generated by pescan.py
C 0.4594447858 0.8369805963 -0.6213189502
H -0.0719358684 1.3422152909 -1.4271843029
C 0.7596090401 1.7518961417 0.5535254338
H -0.2041467828 2.062387845 0.979385303
H 1.2777613426 1.1869104839 1.3356849691
C 1.5736215311 2.9928708408 0.1628931572
H 1.7262336942 3.6416152166 1.0308770094
H 2.5571699698 2.7148247935 -0.2274928662
H 1.059832689 3.5780535892 -0.6073604655
Se -0.4614162668 -0.9208555188 -0.1925425389
H -1.6563649127 -1.9570087692 0.04929401
Se 1.9529635278 -0.2036232252 -1.3503866611
H -2.1405777497 -2.5773642847 0.1881249025
