13
generated by pescan.py
C 0.0574250805 0.5918615921 -0.3384246641
H 0.1097260769 0.7201848856 -1.4209080112
C 0.399167911 1.9167737327 0.3737170666
H -0.426923931 2.6220971282 0.2086749365
H 0.4561548884 1.7438312405 1.4537957046
C 1.697100549 2.557630673 -0.1311981812
H 1.8805698437 3.5003789282 0.3934170876
H 2.5528966071 1.8986859887 0.0375257434
H 1.63802985 2.7771601868 -1.2027295433
Se -1.819639848 0.1766697078 0.1251600003
H -1.9082972003 -2.0369880047 -1.0332262149
Se 1.3492934361 -0.8781310554 0.0226307213
H 0.8466977367 -1.1412500037 1.3850693543
