13
generated by pescan.py
C 0.5175739605 0.974202335 -1.0270701173
H 0.093008599 1.6972503387 -1.723558102
C 0.668865827 1.5436458196 0.3744447852
H -0.339864409 1.7467102459 0.7590811265
H 1.1093629398 0.7871627635 1.0321436696
C 1.5039182652 2.8299179338 0.4032481608
H 1.5622242946 3.2268339881 1.4210801065
H 2.524848508 2.6488353689 0.0529874884
H 1.0622874094 3.6041999692 -0.233518064
Se -0.4175876224 -0.7600296136 -1.1825158333
H -1.5837540773 -1.7912573006 0.6441273664
Se 2.0976108225 0.0998339827 -1.8239990648
H -1.9663005172 -2.1584008311 1.1770454779
