13
generated by pescan.py
C 0.195475968 0.6951646748 -0.6683467807
H 0.3842278418 0.9940830389 -1.7841777472
C 0.3716427426 1.8294318649 0.3472017396
H -0.4719283332 2.5161916807 0.2370674854
H 0.2757672701 1.3696285672 1.3382971184
C 1.692261445 2.5995793475 0.2537306625
H 1.7241397776 3.3754836379 1.024715788
H 2.5520036063 1.9402349531 0.3924666013
H 1.7938129006 3.0927700966 -0.719476125
Se -1.5745837036 0.4634728736 -1.3706597202
H -0.5290719543 -2.0699468348 0.9635831589
Se 1.5842866722 -0.5777525471 -0.8436001754
H -1.165827233 -1.7794363533 0.7027019946
