13
generated by pescan.py
C 0.3139874904 1.1143604539 -1.0864096202
H -1.1652097513 -0.1658311812 -2.6436273657
C 0.3947016441 2.06337323 0.094284578
H 0.0718187329 3.0478560775 -0.2767804832
H -0.3607531452 1.7707957771 0.8359742858
C 1.7631000745 2.1924889303 0.7644306807
H 1.7024267683 2.9087820849 1.5898063014
H 2.0951506484 1.2314852769 1.1663756614
H 2.5185798102 2.5386044157 0.0565347722
Se -1.4988674163 0.5951735509 -1.4303239795
H -0.0094601442 -1.7924383691 1.5514499835
Se 1.7011897073 0.5643940066 -2.06916566
H -0.694456419 -1.6201372535 1.3209528454
