13
generated by pescan.py
C 0.3149237033 1.1360683793 -1.1151422108
H -1.1631531077 -0.1067120368 -2.7045042517
C 0.3931584431 2.0649971154 0.0813095784
H 0.0654898691 3.0542099449 -0.2724645187
H -0.361723803 1.7545678479 0.8165762953
C 1.7585593406 2.1872215989 0.757584509
H 1.6924378358 2.8911729419 1.5929843078
H 2.0914384912 1.2209548083 1.1458980281
H 2.517078397 2.5446270656 0.0582944387
Se -1.5021328772 0.6432103698 -1.485173357
H -0.0043209042 -1.8584044326 1.6752827431
Se 1.7041996176 0.584410829 -2.0932866982
H -0.6737430054 -1.6674174316 1.4161431361
