13
generated by pescan.py
C 0.2335319178 0.8716038704 -1.0519820946
H 0.5579929379 1.5076162132 -1.8790253139
C 0.1662924097 1.649083702 0.2586672107
H -0.6730663885 2.350646217 0.1626677251
H -0.1025828794 0.9651800952 1.0711710159
C 1.4429629716 2.4270929336 0.5961359654
H 1.2979566229 3.0148805518 1.507640391
H 2.2928481656 1.7582748355 0.7597611493
H 1.7123212673 3.120728404 -0.2079564946
Se -1.3800898222 -0.1069568348 -1.5741473379
H -1.3076629685 -1.1984401111 1.2193127663
Se 1.5471187592 -0.6310068591 -1.1090787591
H 1.0445740065 -1.2798020177 0.1203337764
