13
generated by pescan.py
C 0.0557790789 0.5998943962 -0.333468723
H 0.1063924919 0.7284625678 -1.4160170253
C 0.4036143506 1.9245910799 0.3779100822
H -0.4205410302 2.6326779217 0.2155398144
H 0.4639669488 1.7513504753 1.4576672558
C 1.7018718157 2.560953623 -0.1323120844
H 1.8900323382 3.5031566849 0.391614695
H 2.5560747964 1.8992114755 0.0334203586
H 1.6392744819 2.7805149276 -1.2036100104
Se -1.8198159372 0.1920753084 0.1348873445
H -1.9289721921 -2.1118676105 -1.0650840012
Se 1.344653168 -0.8734027455 0.0258865271
H 0.8398716889 -1.1387121042 1.3870697669
