13
generated by pescan.py
C 0.3153356798 1.070557534 -1.0213488422
H -1.1746739215 -0.298910005 -2.4932707663
C 0.4035746904 2.0692701951 0.1168491719
H 0.0877938811 3.0388171132 -0.2970972212
H -0.3523131103 1.8165545837 0.8726152487
C 1.7746718548 2.2173411808 0.7783061866
H 1.7192674975 2.9616267155 1.5787587601
H 2.1058325839 1.2692120803 1.2104410341
H 2.5288675882 2.5356065152 0.0560703379
Se -1.4937291208 0.5119271492 -1.3084433688
H -0.0341400363 -1.6918543252 1.2805616537
Se 1.6937935294 0.5015233583 -2.0058976088
H -0.7420731163 -1.5527660951 1.1059594141
