13
generated by pescan.py
C 0.1307957799 0.9392268996 -0.766052935
H 0.2276604063 1.4638350058 -1.7194890225
C 0.4261367006 1.8611015175 0.4135283036
H -0.4050217399 2.576887949 0.4678297516
H 0.3870891513 1.2825592937 1.3431498991
C 1.7484057366 2.6277816344 0.3042652467
H 1.8613080496 3.311209371 1.1514566086
H 2.6082647767 1.9518579259 0.2991466015
H 1.7865214661 3.2263368545 -0.6125126013
Se -1.5750353497 -0.0209237658 -0.7052444135
H -2.9537310032 -3.0886385425 0.2634270725
Se 1.3775499947 -0.6105598468 -0.9793182558
H 1.212255031 -1.0717772963 0.4133157444
