13
generated by pescan.py
C 0.0300558273 1.0495033234 -0.7283737483
H 0.1873862324 1.5121785862 -1.7051544607
C 0.4380506985 1.9849359949 0.4051560796
H -0.293015102 2.8042869698 0.4116761458
H 0.3190657429 1.466990717 1.3633484203
C 1.8506427455 2.5637001703 0.2708756549
H 2.0484986444 3.2732860052 1.0800084574
H 2.6127513943 1.7801483418 0.3147697518
H 1.97333305 3.0975837501 -0.6778595301
Se -1.7756992525 0.3010834397 -0.6262282037
H -2.5720514158 -3.7680321559 0.0431907471
Se 1.0798745936 -0.6503445928 -0.8558843032
H 0.9333038416 -0.9664215499 0.5779739891
