13
generated by pescan.py
C 0.061900726 0.6505918647 -0.3317272104
H 0.1205436299 0.7859531477 -1.4132594154
C 0.4295183347 1.9619075226 0.3933332767
H -0.3879592451 2.6813847 0.2471134216
H 0.4957899932 1.7734402287 1.4698554214
C 1.7309833246 2.5891172832 -0.1221415882
H 1.9355724042 3.520439833 0.4149349902
H 2.5790565331 1.9152868179 0.024110115
H 1.6593738871 2.8264394132 -1.1889735551
Se -1.8090988658 0.2420650815 0.1286258696
H -2.1406422163 -2.5561157744 -1.163760475
Se 1.3231869875 -0.8512212496 0.0217702112
H 0.8339785069 -1.0903828684 1.3936229384
