13
generated by pescan.py
C 0.4209454778 1.0039474671 -0.7655519414
H 0.030035276 1.610063467 -1.5828046842
C 0.7047835988 1.8212402731 0.4847322702
H -0.2565791841 2.2057276849 0.8518858327
H 1.0994154829 1.164546824 1.2673409019
C 1.666940768 2.9899156939 0.2379770116
H 1.8154477574 3.5627638474 1.1584088983
H 2.6455363114 2.6344249888 -0.0985451298
H 1.2768686657 3.6749979938 -0.5224892007
Se -0.6717033567 -0.628138148 -0.5156163474
H -1.6756707213 -2.4055570133 0.3046469273
Se 1.8653416255 -0.176044697 -1.4169862036
H -2.0891687015 -3.0089853817 0.4704956653
