11

Cl 1.2427502711 3.4472029081 -1.5583173198
Cl 0.6470939295 1.4177912549 0.3620151581
C -0.9385898821 -0.9029759486 -0.0326369928
C -0.315071217 0.1493088295 -0.8083680561
C -0.203278578 -2.1084847764 0.4338542844
H -1.9295393557 -0.7123371486 0.3721543788
H 0.4951754031 -0.1725858357 -1.4597520267
H -1.0004035042 0.8266113042 -1.3113924625
H 0.2082547692 -1.9451000457 1.4431530816
H -0.8648868977 -2.9782674423 0.5042954338
H 0.6387950617 -2.3557620992 -0.2202064787
