11

Cl -0.2949674784 1.558104347 1.0300371572
Cl 1.6628046284 1.5818619304 -0.7943892272
C -0.7496087276 -0.4869159733 -0.3342192686
C 0.0803418318 -0.2853739148 -1.4411001085
C -0.4636096697 -1.5375015537 0.6903736715
H -1.7613488278 -0.0986140452 -0.3885663924
H 0.9619870641 -0.899143595 -1.5801349126
H -0.2576471937 0.3000717113 -2.2863297442
H -0.9455017499 -1.3128650567 1.6431287199
H -0.8625713427 -2.4984002538 0.3333804295
H 0.6104234657 -1.6558235962 0.8526216753
