11

Cl -0.6532201541 3.165248492 -0.0476415875
Cl 1.3211225766 1.2310364743 -0.1530453107
C -0.728890383 -0.7277881001 -0.2679656267
C 0.1813974416 -0.0788855845 -1.1667712293
C -0.3634364876 -1.9177416964 0.5461032142
H -1.6633771055 -0.2176174902 -0.0487073998
H 0.9647201857 -0.7068933699 -1.5873420979
H -0.2611945074 0.6011672052 -1.8889322891
H -0.1247770545 -1.618263716 1.5785384147
H -1.2000621082 -2.6225108406 0.6170541706
H 0.5080135963 -2.442350374 0.1435127416
