11

Cl -1.1932408649 1.2077384525 0.176007065
Cl 1.9581529421 0.1816599675 0.6093749356
C -0.6612632587 -0.0621177081 -0.4193634201
C 0.842363639 -0.0211334375 -0.8094482077
C -0.9478702881 -1.3297753064 0.429308608
H -1.1195833197 -0.2757010714 -1.404417266
H 1.1305661782 -0.949476535 -1.3036956243
H 1.0395537467 0.8247157539 -1.4704468368
H -0.4653177884 -1.246303056 1.406491388
H -2.0253933264 -1.4355213361 0.5829606252
H -0.5776676597 -2.2286857234 -0.0719732669
