11

Cl -0.4848414707 3.3299965557 -0.5298034091
Cl 1.2646062405 1.2581754919 0.0063508074
C -0.7395980003 -0.7476926102 -0.1869428047
C 0.1319031512 -0.0235694981 -1.0647557338
C -0.3460977594 -1.9979721969 0.5155835152
H -1.6765742802 -0.2722555811 0.0924035773
H 0.9171454964 -0.6018391128 -1.5475583128
H -0.3433734736 0.7015262833 -1.7191078481
H -0.0897939488 -1.788382342 1.5657648748
H -1.1746738765 -2.7154888047 0.5402386489
H 0.5215939214 -2.4770961851 0.0526286849
