11

Cl -1.2882469079 1.4139365108 0.2358861706
Cl 1.9531103866 0.113740422 0.6122366866
C -0.6052953569 -0.2043274879 -0.4885432943
C 0.865074632 -0.0294660526 -0.8259129477
C -0.9453053639 -1.3523883868 0.4417285922
H -1.1445347392 -0.2875111845 -1.4359205331
H 1.2022690947 -0.9097529537 -1.3805262925
H 1.0239550082 0.8613502745 -1.4325905499
H -0.4674814933 -1.2232948876 1.414308327
H -2.0251543479 -1.4256655663 0.5830246054
H -0.5880919124 -2.2912186881 0.0011062357
