11

Cl -1.2645145419 1.3618519771 0.2189026777
Cl 1.9545611107 0.1207337752 0.6112684381
C -0.619279061 -0.1696783365 -0.4725351418
C 0.8586823177 -0.02676965 -0.8230038432
C -0.9455740538 -1.3454563243 0.4400944992
H -1.1400051857 -0.2864044344 -1.4291771144
H 1.1824481395 -0.9165901628 -1.3683654984
H 1.0294722327 0.8567496548 -1.4378567349
H -0.4711722521 -1.223444757 1.4156454822
H -2.0250142007 -1.4311434201 0.5812651693
H -0.5793045055 -2.2744483219 -0.0114399338
