11

Cl -0.3584811967 1.6909939212 1.1399196981
Cl 1.5086497528 1.4120984305 -0.7549999502
C -0.7364192387 -0.5127146182 -0.3736299314
C 0.1412167444 -0.2421419757 -1.4369139511
C -0.4454714323 -1.5366338771 0.6690086374
H -1.7256609252 -0.0704303638 -0.3988000055
H 0.9676295053 -0.9219103695 -1.6147674247
H -0.2294930588 0.293123468 -2.3030503426
H -0.8817841301 -1.2601486938 1.6308848644
H -0.889470687 -2.4986864706 0.3703905332
H 0.6295856664 -1.688148451 0.7967588723
