11

Cl 1.3115691649 3.5267799612 -1.5227478792
Cl 0.6360815459 1.4209007043 0.3243606856
C -0.9455317632 -0.9136386722 -0.0300391148
C -0.3329924029 0.1345811452 -0.821230273
C -0.200059643 -2.1107302115 0.441646806
H -1.9344169945 -0.7240293926 0.380173859
H 0.4720491958 -0.1920482138 -1.4767435024
H -1.0274336559 0.8019890776 -1.3251386106
H 0.2197379232 -1.9351330835 1.445474254
H -0.8562088782 -2.9833521014 0.5265261864
H 0.637505508 -2.3599192134 -0.217483411
