11

Cl 1.1595763498 3.3840639218 -1.5712920329
Cl 0.6709171447 1.4146724859 0.3860721444
C -0.9298697631 -0.8909399826 -0.0355323522
C -0.29575893 0.1554088535 -0.8045790772
C -0.2086912675 -2.1058727729 0.428470725
H -1.9209590508 -0.6933252129 0.365677157
H 0.5203056388 -0.1659727758 -1.4485307937
H -0.9689466737 0.8459575847 -1.3054498994
H 0.1967672516 -1.9519713354 1.4416969355
H -0.8786663188 -2.9699527505 0.4894893538
H 0.6356246191 -2.3566670159 -0.2212231602
