11

Cl 0.9971043129 2.8741875267 -1.7292959518
Cl 0.6766753226 1.4486618306 0.5545387395
C -0.9027818348 -0.8347561151 -0.0310116099
C -0.2835425609 0.220593081 -0.7569443671
C -0.1956267348 -2.075943683 0.3832612448
H -1.9003631743 -0.6613530422 0.3668516147
H 0.5633652111 -0.0421571378 -1.3850471049
H -0.9405129215 0.9523469412 -1.2145292574
H 0.1206126048 -2.0062422492 1.4360355358
H -0.8547816033 -2.9489854524 0.3175880555
H 0.7001483783 -2.2609516998 -0.2166468992
