11

Cl -0.3325574658 3.465552536 -0.6855212478
Cl 1.1865429407 1.2683396512 0.0809458781
C -0.762082497 -0.7827977278 -0.1785434359
C 0.096065565 -0.006548743 -1.0285788912
C -0.3312725523 -2.0306577741 0.506013764
H -1.7147960468 -0.3431118947 0.1069076686
H 0.8966712027 -0.5510229457 -1.5255510798
H -0.3928985429 0.7222381667 -1.6697794994
H -0.0625590087 -1.8234471665 1.5539288312
H -1.1430785882 -2.7664016007 0.5378407931
H 0.5402609931 -2.4867395013 0.0271372191
