11

Cl -0.4198964821 1.5338678009 0.4152209988
Cl 2.3070884771 1.2404738066 0.3655771386
C -0.8626375131 -0.4757361743 -0.3628999715
C -0.2638419314 -0.393114733 -1.6384893837
C -0.3064633822 -1.3954319863 0.6879171508
H -1.9379561672 -0.3140514707 -0.3288205401
H 0.7694046288 -0.6909285371 -1.781208842
H -0.7799898199 0.0821552744 -2.465147354
H -0.704413386 -1.1564915865 1.6752558152
H -0.6047410995 -2.4221813739 0.4384249299
H 0.7837486754 -1.3431640202 0.718974058
