11

Cl -1.1074861905 1.0217479728 0.1381057772
Cl 1.9733930843 0.3259712314 0.5984571661
C -0.736681984 0.1000042724 -0.3340095683
C 0.8570007614 -0.0208667281 -0.7925199502
C -0.9658172858 -1.3368638958 0.4145262491
H -1.088208568 -0.245405777 -1.3786968551
H 1.1003323968 -1.0060973917 -1.186251369
H 1.0522428024 0.7574410659 -1.536008137
H -0.4388232789 -1.309657991 1.3745665906
H -2.0410039547 -1.4330087502 0.6044459169
H -0.624647783 -2.1878640087 -0.1778178203
