11

Cl -1.1277865365 1.0649280073 0.1435082847
Cl 1.9701798682 0.2689435004 0.6016128834
C -0.7128128561 0.0563868585 -0.3571329105
C 0.8437107681 -0.0204330706 -0.7957671074
C -0.9563727137 -1.3278995872 0.4186843314
H -1.0935183471 -0.2577862477 -1.3837745557
H 1.0934577411 -0.9883606077 -1.2278675822
H 1.0447670359 0.780888123 -1.5119040656
H -0.4552756548 -1.2824390203 1.3914250615
H -2.033311782 -1.4364223512 0.586980748
H -0.592737523 -2.1924056046 -0.1409670877
