11

Cl -1.3430485031 1.5205446 0.2546723789
Cl 1.9578837428 0.0594735241 0.6094615607
C -0.5780007005 -0.2748891074 -0.5206461281
C 0.8770952793 -0.035549161 -0.832907364
C -0.9437339656 -1.3630234287 0.4495351651
H -1.1492781151 -0.3007973073 -1.4488799572
H 1.2364951836 -0.8788846309 -1.4332057694
H 1.0091551705 0.8857221179 -1.3980123472
H -0.4712013538 -1.2043899266 1.4196586103
H -2.025284591 -1.4205046821 0.5783220687
H -0.589781147 -2.3223009982 0.0467987822
