11

Cl -0.4792263577 1.8432518453 1.1732020603
Cl 1.4185741141 1.3922387453 -0.6872473547
C -0.725506464 -0.5706461288 -0.4150184237
C 0.1922575811 -0.2199916985 -1.4290912078
C -0.4336150519 -1.5709221385 0.6456685338
H -1.7046545269 -0.1051667538 -0.4239067081
H 1.0214468415 -0.8951775048 -1.6177797573
H -0.1850248012 0.3011113608 -2.3021348921
H -0.6673694342 -1.1613129276 1.6338287144
H -1.0685238271 -2.4590384609 0.512138903
H 0.6119419262 -1.8889443386 0.6351401321
