11

Cl -0.4446592891 1.3874660485 0.4068649286
Cl 2.3316470899 1.2877460212 0.3611876588
C -0.8263649972 -0.3355777658 -0.2969963984
C -0.2655614687 -0.4110650311 -1.6450276274
C -0.310191356 -1.3683193177 0.6913191464
H -1.9177933783 -0.2932337792 -0.3097369356
H 0.7627257625 -0.7260532462 -1.7852470643
H -0.7923967865 0.0261542224 -2.4856233231
H -0.72339978 -1.203588038 1.6886922062
H -0.6139283306 -2.3633823627 0.3482283082
H 0.7802265341 -1.3347507514 0.7511431006
