11
generated by pescan.py
Br 1.9273543454 -0.219177645 -0.6953150607
Br 1.197728457 2.496753688 0.1778110752
C -0.8207809168 -1.3993850086 0.0120537877
C 0.1594081848 -1.081638068 0.9241394349
C -1.8475847888 -0.4489294702 -0.4921613024
H -0.8305396423 -2.4067734647 -0.4024034146
H 0.1534056982 -0.118465188 1.4245996235
H 0.8047908718 -1.8499263415 1.3344342766
H -2.8530219757 -0.8216637985 -0.2529860195
H -1.7269035907 0.5518870876 -0.0729961899
H -1.7990596426 -0.3816847911 -1.5863692108
