11
generated by pescan.py
Br 2.856192474 -0.7742291306 -1.5157240157
Br 1.2557796401 1.1040446109 0.160973533
C -0.7359221777 -1.0387422119 -0.037056079
C 0.1476397241 -0.4939570933 0.9537017792
C -2.0951115382 -0.4995732116 -0.3110970667
H -0.3215593685 -1.7675346956 -0.7289781137
H -0.333807231 0.0056157989 1.7931464726
H 0.9640142515 -1.1413805353 1.2628110742
H -2.8104167047 -1.3106091657 -0.4926637721
H -2.4693388916 0.1205119663 0.5088623248
H -2.092680178 0.1168546679 -1.2231631365
