11
generated by pescan.py
Br 1.311389918 1.0134108101 0.8174250561
Br 2.2290716561 2.0841042627 -1.7047713494
C -0.6488323648 -1.1311156406 -0.220809388
C 0.0151102503 -1.5812569127 0.8766047245
C -1.9679608009 -0.4369176906 -0.2035248842
H -0.192227709 -1.2857677594 -1.1973112475
H -0.4005614051 -1.4657272258 1.8733114271
H 0.9562795251 -2.112798654 0.788593855
H -2.3507437834 -0.302503702 0.8109292979
H -1.8840165657 0.5456739977 -0.682238401
H -2.7027117207 -1.0061014854 -0.7874110906
