11
generated by pescan.py
Br -0.6980834564 1.7316603599 0.016317369
Br 5.6207750987 0.2334835849 -0.750708218
C -0.905217866 -0.4560123802 -0.2970394317
C 0.1841752621 -0.9934932377 0.4442442972
C -2.3158585809 -0.7998390796 0.1252436741
H -0.757026525 -0.4307757841 -1.3742546625
H 0.0602077799 -1.2605357433 1.4890068224
H 1.1874990381 -0.9980661361 0.0339394201
H -2.4463619534 -0.6882615784 1.2045971875
H -3.0487596785 -0.1710824482 -0.3820949859
H -2.5165511187 -1.8460775572 -0.1384524722
