11
generated by pescan.py
Br 1.3502227022 0.126917668 -2.6435818786
Br 1.8435659632 0.7022652702 0.1314316371
C -0.6645933539 -1.1511120381 0.2865530138
C -0.1743266266 -0.6980729368 1.4757400106
C -1.7401424945 -0.5038718136 -0.5053319973
H -0.208170106 -2.0394216689 -0.1475271742
H -0.5969387688 0.1735792583 1.9659591523
H 0.582759128 -1.253405523 2.0173566049
H -2.4906782612 -1.2431690041 -0.810163157
H -2.2298101555 0.3092135862 0.0359839121
H -1.3070970269 -0.101922798 -1.4356111236
