11
generated by pescan.py
Br -0.6971848653 1.7347985976 0.0241401672
Br 5.5349593176 0.2096350372 -0.7401450757
C -0.8972815853 -0.4506729427 -0.2976133424
C 0.1938284493 -0.988859401 0.4413506499
C -2.3068716607 -0.8007881639 0.1235573484
H -0.7488634409 -0.4216216577 -1.3747042806
H 0.0724278845 -1.2560590284 1.486384916
H 1.1961219746 -0.9920597179 0.0296130936
H -2.440506418 -0.6816108787 1.2016187041
H -3.0426982041 -0.1812825238 -0.3909235581
H -2.4991344519 -1.8504793207 -0.1324796223
