11
generated by pescan.py
Br 1.3597016185 0.0795054969 -2.5537711074
Br 1.8128394992 0.6917753481 0.2704106264
C -0.6713710686 -1.1558244146 0.2586902083
C -0.1041219519 -0.6512441553 1.4024705563
C -1.7680671697 -0.5128467886 -0.5060677105
H -0.2395514379 -2.0599752125 -0.1668862509
H -0.5300328981 0.2141619395 1.8999691017
H 0.6259459838 -1.2276611486 1.9585002827
H -2.5088933482 -1.2569352283 -0.8206178056
H -2.264120036 0.2814990702 0.0569085375
H -1.3475381911 -0.0814549069 -1.4287964385
