11
generated by pescan.py
Br -0.6797874881 1.7914056945 0.1797785504
Br 2.4800506202 -0.115909176 -0.2811549359
C -0.5393920577 -0.1278257003 -0.3268025003
C 0.6104223148 -0.7931259143 0.3940243483
C -1.8601871279 -0.8305239291 -0.0126490344
H -0.3564847963 -0.1047656143 -1.4009996188
H 0.629279051 -0.6056021794 1.4651000836
H 0.6514566778 -1.8597538821 0.174088168
H -2.0682475516 -0.8274746822 1.0607154436
H -2.6875794753 -0.3348721184 -0.5245376766
H -1.8147311671 -1.8705504984 -0.3567628277
