11
generated by pescan.py
Br -0.6986655086 1.7728584232 0.2214632957
Br 2.7356640035 -0.0690279003 -0.4171366763
C -0.5662391397 -0.133331882 -0.2950560096
C 0.518719309 -0.8252273559 0.4565441348
C -1.9075511632 -0.8368587557 -0.0275537369
H -0.3494739964 -0.1202287552 -1.3628177256
H 0.6811895743 -0.5609528291 1.4960277161
H 0.6704715502 -1.872292431 0.2084836923
H -2.1521177453 -0.8395011048 1.0375954896
H -2.7071641541 -0.3220526288 -0.5644097248
H -1.8600337295 -1.8723827802 -0.3823434553
