11
generated by pescan.py
Br 1.9842348281 -0.345932158 -0.7469125007
Br 0.9496702827 2.1122736644 0.3985316881
C -0.7962025837 -1.3370382078 0.0097111846
C 0.2259031891 -0.9688691219 0.8704649435
C -1.8457113556 -0.4214492714 -0.5102903869
H -0.8135238053 -2.364695853 -0.351726476
H 0.222877543 -0.0024221232 1.3528476082
H 0.8340555778 -1.7454082585 1.3233419647
H -2.8382513978 -0.7822888188 -0.2058870051
H -1.7127096561 0.6036142053 -0.1612573639
H -1.8455486221 -0.4267860572 -1.6080166565
