11
generated by pescan.py
Br 2.0277354002 -0.425266777 -0.7087763836
Br 0.8494261758 2.0289085719 0.2443969837
C -0.7907390074 -1.3096253386 0.0208840036
C 0.2537790363 -0.9491956189 0.8657667778
C -1.8529053665 -0.4008816663 -0.4832213234
H -0.8026829921 -2.3322852891 -0.354712948
H 0.2562507355 8.19516e-05 1.3779800638
H 0.8347742008 -1.7470666937 1.3187080915
H -2.8410961965 -0.8453844565 -0.3059805524
H -1.8074927922 0.5898872246 -0.0313062961
H -1.762255194 -0.2881729078 -1.5729304169
