11
generated by pescan.py
Br 1.2262954218 -0.1816286572 -1.6686526731
Br 1.9992521358 1.3095244342 0.7459983506
C -0.5667069337 -1.1189002765 -0.0485803591
C -0.0203860712 -0.7284371549 1.1676314715
C -1.8301627199 -0.5208230328 -0.5902492464
H -0.2704583473 -2.0874634418 -0.4402206566
H -0.4487140847 0.0900115389 1.7343308397
H 0.7776631126 -1.2942407472 1.6321338923
H -2.6850357605 -1.082290923 -0.1875059971
H -1.939835126 0.5253775878 -0.2957011527
H -1.8771196269 -0.5901303276 -1.6783754692
