11
generated by pescan.py
Br 2.0224176398 0.1659868077 0.3339805438
Br 0.6582558959 2.5047868191 -0.6367722862
C -0.6760172604 -1.3305228667 -0.1943431185
C 0.035521334 -1.4340019178 0.9719995214
C -1.7431752034 -0.3311738521 -0.4477167157
H -0.4059502753 -1.9894313659 -1.0182272064
H -0.2360644412 -0.8454477144 1.8419972084
H 0.7447249882 -2.2400858933 1.1236601781
H -2.0745591611 0.1622740766 0.468523542
H -1.3587185696 0.4511963226 -1.1230067973
H -2.601640947 -0.7925824158 -0.9492938694
