11
generated by pescan.py
Br -0.7103650538 1.7608786534 0.2523604059
Br 2.8718438801 -0.0083281026 -0.448122303
C -0.5798366344 -0.1379603361 -0.2771905893
C 0.4787614066 -0.8444005913 0.4814675713
C -1.9313856193 -0.8419307723 -0.0374406503
H -0.347475306 -0.1241102568 -1.341922991
H 0.6817243373 -0.5740126097 1.5117380653
H 0.6946804363 -1.8694019923 0.1938540765
H -2.1983717104 -0.8436561288 1.021956321
H -2.7140589397 -0.3196990887 -0.5918521888
H -1.8807167966 -1.8763787747 -0.3940477178
