11
generated by pescan.py
Br -0.6578828731 1.8240035674 0.0995515595
Br 2.1875436135 -0.1740296683 -0.050231752
C -0.5078573909 -0.1146093911 -0.3670110264
C 0.7379272265 -0.7463669133 0.3117683242
C -1.7984463996 -0.8200429428 0.0222410184
H -0.3705065111 -0.1003879694 -1.4504757738
H 0.5184466523 -0.71762925 1.3897719599
H 0.6232555627 -1.8140228465 0.0602789929
H -1.9610836887 -0.77509717 1.1030848452
H -2.6594503347 -0.3664604775 -0.4721458548
H -1.7471458572 -1.8743569385 -0.276032293
