11
generated by pescan.py
Br -0.6977139007 1.7773866097 0.2222050683
Br 2.6644441007 -0.0932357283 -0.4058580918
C -0.5592565479 -0.1295534935 -0.2981012805
C 0.5407267755 -0.8150681992 0.4478290625
C -1.8952815911 -0.8366870068 -0.0285158688
H -0.3462746624 -0.1102910722 -1.3664440953
H 0.67832109 -0.5595728426 1.4935111365
H 0.660907486 -1.8703566636 0.2159800146
H -2.1371589068 -0.8436602355 1.0373273707
H -2.7002389308 -0.3264538768 -0.5617486007
H -1.8436739123 -1.871506491 -0.3853867157
