11
generated by pescan.py
Br 1.9324708263 -0.2368619409 -0.7222367259
Br 1.1998818927 2.4379829331 0.2582446331
C -0.8189572373 -1.3914537614 0.011459708
C 0.1673378877 -1.0544638555 0.9114434654
C -1.8538442904 -0.4533104343 -0.4989184966
H -0.8293941698 -2.4061944563 -0.384728105
H 0.1628885667 -0.0817699428 1.3934103679
H 0.8104147142 -1.8170418517 1.3361005383
H -2.8551823514 -0.8263541474 -0.2431847468
H -1.733221765 0.5542225285 -0.0962480915
H -1.8175990738 -0.4037570714 -1.5945345469
