11
generated by pescan.py
Br 1.9292061222 0.3389242765 0.5281605504
Br 0.7661613557 2.3766504554 -1.1335740089
C -0.6545577473 -1.2918836064 -0.193303898
C 0.0026519236 -1.5210211002 0.9818957004
C -1.7500335184 -0.3098774817 -0.3721958655
H -0.3123022651 -1.8194866184 -1.0823290563
H -0.3252365272 -1.0557481854 1.906169892
H 0.7670043473 -2.2865002284 1.0565696395
H -2.1693467027 0.0262754538 0.5790876325
H -1.3422970278 0.5741870987 -0.8910338377
H -2.5464549603 -0.7105190639 -1.0086477483
