11
generated by pescan.py
Br -0.6786432454 1.8035622612 0.1694220621
Br 2.3627283851 -0.165762436 -0.2211291141
C -0.5271069296 -0.1200044204 -0.3395286876
C 0.6588352219 -0.770029456 0.3633455326
C -1.8346009255 -0.8310702402 -0.0066314767
H -0.3605817022 -0.08695813 -1.4167143992
H 0.6029827721 -0.615013136 1.4413983301
H 0.6265733626 -1.844219811 0.1641756616
H -2.0270478152 -0.8266037 1.0698457201
H -2.6768349929 -0.3500967027 -0.5078848751
H -1.7815041308 -1.8728042288 -0.3454987539
