11
generated by pescan.py
Br -0.6691120323 1.8161355294 0.1407496027
Br 2.2453122534 -0.1996600762 -0.1462759975
C -0.5139386816 -0.1160794405 -0.3535665882
C 0.7104731014 -0.7507033783 0.3339531879
C -1.810705674 -0.8282319655 0.004685116
H -0.3636658604 -0.0848404728 -1.4342695467
H 0.5657606846 -0.6422698599 1.4149502496
H 0.6079504497 -1.8266795465 0.1375781361
H -1.9855322244 -0.8153292903 1.0843044946
H -2.664576853 -0.3581204105 -0.4867011702
H -1.7571651635 -1.8732210888 -0.3246074843
