11
generated by pescan.py
Br -0.6465281874 1.8520687455 0.0845969941
Br 1.9776201478 -0.2909741549 0.0150769385
C -0.5077375049 -0.0888345922 -0.3813309424
C 0.8829528667 -0.6996921781 0.2883044329
C -1.7640170016 -0.8267577321 0.0294350238
H -0.3643919519 -0.0755955827 -1.4668783809
H 0.477841962 -0.7064551394 1.349560017
H 0.5528843271 -1.7698535826 0.0641687977
H -1.9069724654 -0.7957712692 1.1135373509
H -2.6503908862 -0.4007271366 -0.4452138425
H -1.6864613062 -1.8764073775 -0.280456389
