11
generated by pescan.py
Br 5.5457483643 -1.0354651786 -0.0038867934
C -1.1837365934 0.6282990009 0.0143067372
C 0.1292819231 -0.0806551208 0.0113928908
C -2.3991291027 -0.3296181369 -0.0140540334
H -1.263974828 1.2651793685 0.9046769011
H -1.2500964787 1.2960864024 -0.8548963474
H 0.5603133001 -0.443925118 -0.9166559394
H 0.5739377062 -0.4318350244 0.9374903662
H -3.3387412417 0.2340789187 -0.0147546134
H -2.3809212733 -0.9599541538 -0.9088402614
H -2.399883776 -0.989590958 0.8593190929
