11
generated by pescan.py
Br 2.4823366279 -0.1383828829 -0.8614037788
C -0.7201607623 0.5120881415 0.201374501
C 0.4071476552 -0.4604893855 0.3004216976
C -2.0948517853 -0.1182264263 -0.1189857262
H -0.7904814271 1.0420369122 1.1620457146
H -0.4860412987 1.2668982435 -0.5603694663
H 0.6615058045 -0.9860869836 -0.6555307053
H 0.4626064871 -1.1381512433 1.1525686558
H -2.87176154 0.6524006701 -0.1630507587
H -2.07444517 -0.630650628 -1.0863067419
H -2.3830695913 -0.8488304177 0.6433426082
