11
generated by pescan.py
Br 4.7212921463 -0.0429089333 0.0234145695
C -0.9605156284 0.4857657944 0.0060222254
C 0.1457505951 -0.5160995324 0.0007598411
C -2.3684111143 -0.1566152783 -0.0072517102
H -0.8788295432 1.1277435197 0.8926443659
H -0.8714346162 1.1450230188 -0.8673884316
H 0.481514395 -0.9675062621 -0.9280726801
H 0.495070491 -0.9642035103 0.9261023679
H -3.148005279 0.6132206661 -0.0035430724
H -2.5074597852 -0.7770420139 -0.8982896307
H -2.5161786611 -0.7947774686 0.869701155
