11
generated by pescan.py
Br 3.6079193278 0.0244870101 0.0108619345
C -0.8357675348 0.4817413795 0.0070415891
C 0.2548574628 -0.5384971898 0.005808596
C -2.2515071263 -0.1431086119 -0.0081039034
H -0.7475749093 1.1235488027 0.8933985855
H -0.7351480595 1.1390107943 -0.8665601947
H 0.5673571592 -1.0070493205 -0.9223615426
H 0.5603177845 -1.0192414083 0.9298615107
H -3.0237831045 0.6343127792 -0.0063195078
H -2.3960396713 -0.7633440083 -0.8985765625
H -2.4078453287 -0.7792602271 0.8690514952
