11
generated by pescan.py
Br 3.1098355786 0.5089809675 -0.0043148886
C -0.7280359161 0.4052297294 0.0104449989
C 0.2612042703 -0.7137737186 0.0088220996
C -2.1983914722 -0.0752874763 -0.0084516011
H -0.5800667538 1.0344081844 0.8981809733
H -0.5616339791 1.0536300207 -0.859791531
H 0.5162552026 -1.2186063016 -0.9192963629
H 0.4865714153 -1.2486734427 0.9274866215
H -2.8885258221 0.7760671711 -0.0038468692
H -2.404751672 -0.674063448 -0.9015314801
H -2.4196758517 -0.6953106858 0.8664020395
