11
generated by pescan.py
Br 2.2183827951 0.1217627685 0.0265080312
C -0.6195253849 0.5167489714 0.0058024738
C 0.4504084818 -0.5737466544 0.0034166936
C -2.0294056983 -0.0869106598 -0.0068743385
H -0.4876195939 1.1496405313 0.8903670527
H -0.4774572127 1.1635482635 -0.8670451718
H 0.368279759 -1.1991569183 -0.8878630413
H 0.352828476 -1.2176568049 0.8797892537
H -2.7892661394 0.7003213444 -0.0017012857
H -2.1931929617 -0.7016439106 -0.8988521002
H -2.200632521 -0.7203069311 0.8705524324
