11
generated by pescan.py
Br 2.6720688713 0.3229375419 0.0063795261
C -0.6860365503 0.4515042639 0.009081637
C 0.3587696283 -0.6250320918 0.0057405505
C -2.1324486561 -0.0877734232 -0.0072345029
H -0.5589460883 1.0898350589 0.8942387336
H -0.5459038526 1.1085815049 -0.8602264534
H 0.4996281876 -1.202877677 -0.9100000402
H 0.4881265408 -1.2217791031 0.9103936204
H -2.8619711248 0.7308240588 -0.0027970816
H -2.3141691172 -0.6965352018 -0.8993065371
H -2.3263328387 -0.7170799317 0.8678345477
