11
generated by pescan.py
Br 2.7536881933 0.3335863535 0.0092068755
C -0.6947362147 0.4485710376 0.0086318236
C 0.3407042331 -0.63465345 0.0044786267
C -2.1435489651 -0.0874086851 -0.0070648261
H -0.5655129972 1.0853060341 0.8942847993
H -0.5534961927 1.1038349894 -0.8615441817
H 0.5000307279 -1.2004176382 -0.9141514757
H 0.4912377775 -1.2173361596 0.9136489119
H -2.8705970738 0.7331702241 -0.0021051288
H -2.3267835797 -0.695536868 -0.89921645
H -2.3382009086 -0.7165098377 0.8679330252
