11
generated by pescan.py
Br 2.0939131476 0.0589594953 0.0002704223
C -0.6072146896 0.5283670983 0.0112352463
C 0.5044975948 -0.5441235181 0.007276436
C -2.0056592788 -0.093157303 -0.0119924691
H -0.486815536 1.1594088715 0.9001342421
H -0.4688256786 1.1851911296 -0.8560299909
H 0.3302585473 -1.1921753897 -0.8604825493
H 0.3377548607 -1.1901418374 0.8779671546
H -2.7787764137 0.6809588159 -0.0063575958
H -2.1547713938 -0.7055727238 -0.9084109556
H -2.1715611598 -0.7351146385 0.8604900594
