11
generated by pescan.py
Br 3.0464219373 0.4618378868 0.0098953437
C -0.7229080222 0.4168720245 0.0078635148
C 0.2776519055 -0.6931002434 0.0042169974
C -2.1877431314 -0.0797565158 -0.0062175183
H -0.5782237649 1.0492175857 0.8938462726
H -0.5663127951 1.0656088334 -0.8639440805
H 0.5123886641 -1.2098995207 -0.9231741336
H 0.4889432653 -1.2379470675 0.9210187259
H -2.8881046706 0.7632897149 -0.0024461031
H -2.3890716543 -0.6831723023 -0.8974095686
H -2.4002577337 -0.7003483955 0.8704545497
