11
generated by pescan.py
Br 2.8166165302 0.377146456 0.0133393771
C -0.7001541828 0.4371667002 0.0076834297
C 0.3222214621 -0.6562413006 0.0030630979
C -2.1553427319 -0.0833363639 -0.0064374399
H -0.5641173214 1.0725158509 0.893136304
H -0.5535288416 1.0898689219 -0.8633264471
H 0.5059219175 -1.2069547265 -0.9186011181
H 0.4960247736 -1.2249388012 0.9155331544
H -2.8720123655 0.7461860753 -0.0013374103
H -2.3463451094 -0.6895094455 -0.8981984984
H -2.3565001308 -0.7092983664 0.8692465507
