11
generated by pescan.py
Br 3.8103854519 -0.0629980019 0.0093131965
C -0.8686939506 0.4901187456 0.0074547899
C 0.23841988 -0.5113877234 0.00622517
C -2.2752883167 -0.1550871868 -0.0085213778
H -0.7906833843 1.1330106303 0.8939618526
H -0.778225524 1.1490029464 -0.8660776637
H 0.5781115367 -0.9599847414 -0.9219094788
H 0.5704932893 -0.9714765523 0.9314564921
H -3.057949107 0.6118082614 -0.0067455621
H -2.4107261343 -0.7767713978 -0.899363844
H -2.4230587411 -0.79363498 0.8683074253
