11
generated by pescan.py
Br 4.278513754 -0.1137264806 0.0112026413
C -0.9240008843 0.4964840311 0.0077045284
C 0.1958451636 -0.490272591 0.0056303817
C -2.3227998644 -0.1653141108 -0.008868609
H -0.8532343176 1.1392292516 0.8947210109
H -0.8412365817 1.1565140218 -0.8656241783
H 0.5442513976 -0.9325571879 -0.9231467001
H 0.5433220774 -0.9385347671 0.9318365568
H -3.1127712633 0.5938000211 -0.0066687635
H -2.4513798416 -0.7873793211 -0.900312985
H -2.4637236397 -0.805641867 0.8676261168
