11
generated by pescan.py
Br 1.9136585702 -0.0305781532 0.0039304503
C -0.5927985215 0.5466322644 0.0105197789
C 0.5951841458 -0.5013420783 0.0065925867
C -1.9734815092 -0.1035475835 -0.0115589739
H -0.4744797615 1.1792585632 0.9003470395
H -0.4578395508 1.2049875603 -0.8580102204
H 0.289708741 -1.1622148674 -0.8374374297
H 0.2933792175 -1.1626196046 0.8516077405
H -2.7663480142 0.6505254279 -0.0048930067
H -2.1100623269 -0.7190941771 -0.9078382031
H -2.1241209902 -0.7494073518 0.8608402378
