11
generated by pescan.py
Br 5.7110245811 -1.1242945571 -0.0035573054
C -1.2119811819 0.6374639818 0.0143834819
C 0.1136354918 -0.0477161478 0.0111474328
C -2.4104326279 -0.3416107205 -0.0139237574
H -1.3034824279 1.2728765163 0.9047420323
H -1.2904890743 1.3041844388 -0.8546179267
H 0.5557333351 -0.3962004861 -0.9172501224
H 0.5690544871 -0.3849863227 0.9370669899
H -3.3596689103 0.2057116442 -0.0139768719
H -2.3814327187 -0.9709949367 -0.9090616883
H -2.3991609543 -1.0018354102 0.8591467352
