11
generated by pescan.py
Br 5.1256246955 -0.7930218861 -0.0092602049
C -1.1097801227 0.5957783269 0.0148851693
C 0.1630295824 -0.1830534481 0.0150717104
C -2.3753095255 -0.2943034272 -0.0159504967
H -1.1569708723 1.2367366384 0.9047079387
H -1.1376059062 1.2659067244 -0.8547841708
H 0.5763782053 -0.5697211075 -0.9114640371
H 0.5942110217 -0.5464450689 0.9427197618
H -3.2831529362 0.31925868 -0.0184891062
H -2.3899190806 -0.9250751984 -0.9105774907
H -2.4137100615 -0.9534612335 0.8572379261
