11
generated by pescan.py
Br 4.4488897327 -0.062816643 0.0126258063
C -0.9349804341 0.4874805832 0.0079224094
C 0.1725238622 -0.5129709772 0.0050831549
C -2.3418048775 -0.1572390106 -0.0090554378
H -0.8565325317 1.1290321138 0.8951565328
H -0.8445849416 1.1472198348 -0.864937461
H 0.5177482902 -0.9569670707 -0.9238519753
H 0.5223162755 -0.9586683095 0.9314320713
H -3.1227005829 0.6112369799 -0.0070366458
H -2.477523807 -0.7777327529 -0.9005567688
H -2.4905619858 -0.7959737478 0.8673173139
