11
generated by pescan.py
Br 2.4809463657 0.2256799455 0.0230086942
C -0.643743585 0.4958259163 0.0073869596
C 0.3467323204 -0.6314946315 0.0034720089
C -2.0761544156 -0.0782450668 -0.0080364909
H -0.4990398075 1.117292506 0.8957662478
H -0.487330229 1.1332504218 -0.8675818925
H 0.4058968146 -1.2200840907 -0.9082532042
H 0.394409539 -1.2373477265 0.9044997572
H -2.8060728508 0.7366137425 -0.0043306595
H -2.2554313821 -0.6849500546 -0.9015864345
H -2.2674157695 -0.7039419618 0.8697560138
