11
generated by pescan.py
Br 2.9449268918 0.4682736525 0.0118307924
C -0.710386901 0.4165679738 0.0076594424
C 0.2886262562 -0.695340974 0.0034969738
C -2.1760167003 -0.0761895848 -0.0063185778
H -0.5634875294 1.048723808 0.8934505437
H -0.5520782995 1.0656238155 -0.863710191
H 0.5110805946 -1.2221130398 -0.9215496024
H 0.4940247111 -1.245220303 0.9188813321
H -2.8750472735 0.7680805952 -0.0017816338
H -2.3790974489 -0.6787370908 -0.8977595364
H -2.3897613011 -0.6970658528 0.869904457
