11
generated by pescan.py
Br 3.0719668093 0.4255813047 0.0047229924
C -0.6933464023 0.4419848826 0.010526182
C 0.1945261864 -0.7278172866 0.0072683571
C -2.1707925676 -0.0670808462 -0.0101427189
H -0.5342199005 1.0456814843 0.907253681
H -0.5168098423 1.0622324456 -0.871732532
H 0.4232123825 -1.2485667577 -0.9171745093
H 0.429161576 -1.2513259373 0.9285899131
H -2.8330083838 0.8031753872 -0.0067629348
H -2.3799112205 -0.655459165 -0.9073242638
H -2.3979786373 -0.6758055118 0.8688758333
