11
generated by pescan.py
Br 2.6908906932 0.3018876513 0.0215589756
C -0.6614519627 0.4767408585 0.0080855109
C 0.280053756 -0.6715311792 0.0036952184
C -2.1119702906 -0.0742645236 -0.0088755168
H -0.5099241211 1.0900965368 0.8999672134
H -0.4968905318 1.1070083842 -0.8695688627
H 0.4244763549 -1.2284031448 -0.9167315891
H 0.4147190551 -1.2445241466 0.9156930289
H -2.8160538059 0.7628022575 -0.005037137
H -2.3035822286 -0.67358025 -0.9039960447
H -2.3174699185 -0.693632444 0.869311203
