11
generated by pescan.py
Br 1.9722878431 -0.0025498128 0.0018626727
C -0.5963559886 0.5404947685 0.0109253248
C 0.5625059224 -0.5148879407 0.0068537664
C -1.9832976189 -0.0999744708 -0.0118300635
H -0.479250813 1.1732438231 0.9002577217
H -0.4620285437 1.199308897 -0.8567494354
H 0.3028195696 -1.1725818061 -0.8444815695
H 0.3085159152 -1.1714830369 0.8606953561
H -2.7698262821 0.6605617092 -0.0055328082
H -2.1236437296 -0.7145344091 -0.9082460894
H -2.1389262744 -0.7449977214 0.8603451241
