11
generated by pescan.py
Br 3.1112065032 0.639200075 0.0363318475
C -0.7188335063 0.3774200341 -0.000735375
C 0.2379756561 -0.7689555399 -0.0042012758
C -2.2030836078 -0.0591633338 -0.0005509425
H -0.5441259176 1.0081034954 0.8814606595
H -0.5433074736 1.0133383731 -0.8783549702
H 0.5161230842 -1.253144238 -0.935143564
H 0.4732851913 -1.293645097 0.9166175854
H -2.8667773732 0.8129046279 0.0045358117
H -2.436182862 -0.6576947602 -0.8870762047
H -2.4334946943 -0.6657616367 0.8812194282
