11
generated by pescan.py
Br 2.3427498309 0.1867590659 0.0306460871
C -0.6314226205 0.5023375487 0.004925997
C 0.3987723926 -0.6070335677 0.0015860343
C -2.0543691629 -0.0805456131 -0.0066760736
H -0.4904358081 1.129685978 0.8908119565
H -0.480891934 1.144391313 -0.8687792298
H 0.3944559734 -1.2143121291 -0.9020990994
H 0.3778124252 -1.2337071005 0.8916500197
H -2.7954299305 0.7243817682 -0.0017721194
H -2.2309262265 -0.6914212328 -0.8983638445
H -2.2375169397 -0.7079370307 0.8721712719
