11
6564
Cl   -1.227500    1.353600    0.270700
Cl    1.919500    0.173800    0.600500
 C   -0.617900   -0.154700   -0.475600
 C    0.867100   -0.032900   -0.822000
 C   -0.941200   -1.339800    0.426500
 H   -1.176500   -0.270900   -1.410800
 H    1.208200   -0.932900   -1.343800
 H    1.042700    0.821000   -1.484500
 H   -0.499100   -1.236600    1.422800
 H   -2.024400   -1.443700    0.554900
 H   -0.570600   -2.271500   -0.013900
